Program Version,EnergyPlus, Version 9.6.0-f420c06a69, YMD=2024.05.14 12:32
! This file shows details about the branches, nodes, and other
! elements of the flow connections.
! This file is intended for use in "debugging" potential problems
! that may also be detected by the program, but may be more easily
! identified by "eye".
! This file is also intended to support software which draws a
! schematic diagram of the HVAC system.
! ===============================================================
! #Nodes,<Number of Unique Nodes>
 #Nodes,683
! <Node>,<NodeNumber>,<Node Name>,<Node Fluid Type>,<# Times Node Referenced After Definition>
 Node,1,ZONE INLET NODE_UNIT1_FRONTROW_BOTTOMFLOOR,Air,3
 Node,2,OA INLET NODE_UNIT1_FRONTROW_BOTTOMFLOOR,Air,3
 Node,3,ZONE INLET NODE_UNIT2_FRONTROW_BOTTOMFLOOR,Air,3
 Node,4,OA INLET NODE_UNIT2_FRONTROW_BOTTOMFLOOR,Air,3
 Node,5,ZONE INLET NODE_UNIT3_FRONTROW_BOTTOMFLOOR,Air,3
 Node,6,OA INLET NODE_UNIT3_FRONTROW_BOTTOMFLOOR,Air,3
 Node,7,ZONE INLET NODE_UNIT1_BACKROW_BOTTOMFLOOR,Air,3
 Node,8,OA INLET NODE_UNIT1_BACKROW_BOTTOMFLOOR,Air,3
 Node,9,ZONE INLET NODE_UNIT2_BACKROW_BOTTOMFLOOR,Air,3
 Node,10,OA INLET NODE_UNIT2_BACKROW_BOTTOMFLOOR,Air,3
 Node,11,ZONE INLET NODE_UNIT3_BACKROW_BOTTOMFLOOR,Air,3
 Node,12,OA INLET NODE_UNIT3_BACKROW_BOTTOMFLOOR,Air,3
 Node,13,ZONE INLET NODE_UNIT1_FRONTROW_MIDDLEFLOOR,Air,3
 Node,14,OA INLET NODE_UNIT1_FRONTROW_MIDDLEFLOOR,Air,3
 Node,15,ZONE INLET NODE_UNIT2_FRONTROW_MIDDLEFLOOR,Air,3
 Node,16,OA INLET NODE_UNIT2_FRONTROW_MIDDLEFLOOR,Air,3
 Node,17,ZONE INLET NODE_UNIT3_FRONTROW_MIDDLEFLOOR,Air,3
 Node,18,OA INLET NODE_UNIT3_FRONTROW_MIDDLEFLOOR,Air,3
 Node,19,ZONE INLET NODE_UNIT1_BACKROW_MIDDLEFLOOR,Air,3
 Node,20,OA INLET NODE_UNIT1_BACKROW_MIDDLEFLOOR,Air,3
 Node,21,ZONE INLET NODE_UNIT2_BACKROW_MIDDLEFLOOR,Air,3
 Node,22,OA INLET NODE_UNIT2_BACKROW_MIDDLEFLOOR,Air,3
 Node,23,ZONE INLET NODE_UNIT3_BACKROW_MIDDLEFLOOR,Air,3
 Node,24,OA INLET NODE_UNIT3_BACKROW_MIDDLEFLOOR,Air,3
 Node,25,ZONE INLET NODE_UNIT1_FRONTROW_TOPFLOOR,Air,3
 Node,26,OA INLET NODE_UNIT1_FRONTROW_TOPFLOOR,Air,3
 Node,27,ZONE INLET NODE_UNIT2_FRONTROW_TOPFLOOR,Air,3
 Node,28,OA INLET NODE_UNIT2_FRONTROW_TOPFLOOR,Air,3
 Node,29,ZONE INLET NODE_UNIT3_FRONTROW_TOPFLOOR,Air,3
 Node,30,OA INLET NODE_UNIT3_FRONTROW_TOPFLOOR,Air,3
 Node,31,ZONE INLET NODE_UNIT1_BACKROW_TOPFLOOR,Air,3
 Node,32,OA INLET NODE_UNIT1_BACKROW_TOPFLOOR,Air,3
 Node,33,ZONE INLET NODE_UNIT2_BACKROW_TOPFLOOR,Air,3
 Node,34,OA INLET NODE_UNIT2_BACKROW_TOPFLOOR,Air,3
 Node,35,ZONE INLET NODE_UNIT3_BACKROW_TOPFLOOR,Air,3
 Node,36,OA INLET NODE_UNIT3_BACKROW_TOPFLOOR,Air,3
 Node,37,ZONE INLET NODE_UNITHEATEDBSMT,Air,3
 Node,38,OA INLET NODE_UNITHEATEDBSMT,Air,3
 Node,39,AIR LOOP INLET NODE_UNIT1_FRONTROW_BOTTOMFLOOR,Air,3
 Node,40,AIR LOOP OUTLET NODE_UNIT1_FRONTROW_BOTTOMFLOOR,Air,3
 Node,41,AIR LOOP INLET NODE_UNIT2_FRONTROW_BOTTOMFLOOR,Air,3
 Node,42,AIR LOOP OUTLET NODE_UNIT2_FRONTROW_BOTTOMFLOOR,Air,3
 Node,43,AIR LOOP INLET NODE_UNIT3_FRONTROW_BOTTOMFLOOR,Air,3
 Node,44,AIR LOOP OUTLET NODE_UNIT3_FRONTROW_BOTTOMFLOOR,Air,3
 Node,45,AIR LOOP INLET NODE_UNIT1_BACKROW_BOTTOMFLOOR,Air,3
 Node,46,AIR LOOP OUTLET NODE_UNIT1_BACKROW_BOTTOMFLOOR,Air,3
 Node,47,AIR LOOP INLET NODE_UNIT2_BACKROW_BOTTOMFLOOR,Air,3
 Node,48,AIR LOOP OUTLET NODE_UNIT2_BACKROW_BOTTOMFLOOR,Air,3
 Node,49,AIR LOOP INLET NODE_UNIT3_BACKROW_BOTTOMFLOOR,Air,3
 Node,50,AIR LOOP OUTLET NODE_UNIT3_BACKROW_BOTTOMFLOOR,Air,3
 Node,51,AIR LOOP INLET NODE_UNIT1_FRONTROW_MIDDLEFLOOR,Air,3
 Node,52,AIR LOOP OUTLET NODE_UNIT1_FRONTROW_MIDDLEFLOOR,Air,3
 Node,53,AIR LOOP INLET NODE_UNIT2_FRONTROW_MIDDLEFLOOR,Air,3
 Node,54,AIR LOOP OUTLET NODE_UNIT2_FRONTROW_MIDDLEFLOOR,Air,3
 Node,55,AIR LOOP INLET NODE_UNIT3_FRONTROW_MIDDLEFLOOR,Air,3
 Node,56,AIR LOOP OUTLET NODE_UNIT3_FRONTROW_MIDDLEFLOOR,Air,3
 Node,57,AIR LOOP INLET NODE_UNIT1_BACKROW_MIDDLEFLOOR,Air,3
 Node,58,AIR LOOP OUTLET NODE_UNIT1_BACKROW_MIDDLEFLOOR,Air,3
 Node,59,AIR LOOP INLET NODE_UNIT2_BACKROW_MIDDLEFLOOR,Air,3
 Node,60,AIR LOOP OUTLET NODE_UNIT2_BACKROW_MIDDLEFLOOR,Air,3
 Node,61,AIR LOOP INLET NODE_UNIT3_BACKROW_MIDDLEFLOOR,Air,3
 Node,62,AIR LOOP OUTLET NODE_UNIT3_BACKROW_MIDDLEFLOOR,Air,3
 Node,63,AIR LOOP INLET NODE_UNIT1_FRONTROW_TOPFLOOR,Air,3
 Node,64,AIR LOOP OUTLET NODE_UNIT1_FRONTROW_TOPFLOOR,Air,3
 Node,65,AIR LOOP INLET NODE_UNIT2_FRONTROW_TOPFLOOR,Air,3
 Node,66,AIR LOOP OUTLET NODE_UNIT2_FRONTROW_TOPFLOOR,Air,3
 Node,67,AIR LOOP INLET NODE_UNIT3_FRONTROW_TOPFLOOR,Air,3
 Node,68,AIR LOOP OUTLET NODE_UNIT3_FRONTROW_TOPFLOOR,Air,3
 Node,69,AIR LOOP INLET NODE_UNIT1_BACKROW_TOPFLOOR,Air,3
 Node,70,AIR LOOP OUTLET NODE_UNIT1_BACKROW_TOPFLOOR,Air,3
 Node,71,AIR LOOP INLET NODE_UNIT2_BACKROW_TOPFLOOR,Air,3
 Node,72,AIR LOOP OUTLET NODE_UNIT2_BACKROW_TOPFLOOR,Air,3
 Node,73,AIR LOOP INLET NODE_UNIT3_BACKROW_TOPFLOOR,Air,3
 Node,74,AIR LOOP OUTLET NODE_UNIT3_BACKROW_TOPFLOOR,Air,3
 Node,75,AIR LOOP INLET NODE_UNITHEATEDBSMT,Air,3
 Node,76,AIR LOOP OUTLET NODE_UNITHEATEDBSMT,Air,3
 Node,77,MAINS INLET NODE_UNIT1_FRONTROW_BOTTOMFLOOR,Water,2
 Node,78,MAINS PRESSURE OUTLET NODE_UNIT1_FRONTROW_BOTTOMFLOOR,Water,1
 Node,79,DHW SUPPLY OUTLET PIPE INLET NODE_UNIT1_FRONTROW_BOTTOMFLOOR,Water,1
 Node,80,DHW SUPPLY OUTLET NODE_UNIT1_FRONTROW_BOTTOMFLOOR,Water,4
 Node,81,DHW DEMAND INLET NODE_UNIT1_FRONTROW_BOTTOMFLOOR,Water,2
 Node,82,DHW DEMAND INLET PIPE OUTLET NODE_UNIT1_FRONTROW_BOTTOMFLOOR,Water,1
 Node,83,WATER SINK INLET NODE_UNIT1_FRONTROW_BOTTOMFLOOR,Water,1
 Node,84,WATER SINK OUTLET NODE_UNIT1_FRONTROW_BOTTOMFLOOR,Water,1
 Node,85,WATER SHOWER INLET NODE_UNIT1_FRONTROW_BOTTOMFLOOR,Water,1
 Node,86,WATER SHOWER OUTLET NODE_UNIT1_FRONTROW_BOTTOMFLOOR,Water,1
 Node,87,WATER CLOTHESWASHER INLET NODE_UNIT1_FRONTROW_BOTTOMFLOOR,Water,1
 Node,88,WATER CLOTHESWASHER OUTLET NODE_UNIT1_FRONTROW_BOTTOMFLOOR,Water,1
 Node,89,WATER DISHWASHER INLET NODE_UNIT1_FRONTROW_BOTTOMFLOOR,Water,1
 Node,90,WATER DISHWASHER OUTLET NODE_UNIT1_FRONTROW_BOTTOMFLOOR,Water,1
 Node,91,WATER BATH INLET NODE_UNIT1_FRONTROW_BOTTOMFLOOR,Water,1
 Node,92,WATER BATH OUTLET NODE_UNIT1_FRONTROW_BOTTOMFLOOR,Water,1
 Node,93,MAINS MAKEUP PIPE INLET NODE_UNIT1_FRONTROW_BOTTOMFLOOR,Water,1
 Node,94,MAINS MAKEUP NODE_UNIT1_FRONTROW_BOTTOMFLOOR,Water,2
 Node,95,WATER HEATER USE INLET NODE_UNIT1_FRONTROW_BOTTOMFLOOR,Water,1
 Node,96,WATER HEATER USE OUTLET NODE_UNIT1_FRONTROW_BOTTOMFLOOR,Water,1
 Node,97,MAINS INLET NODE_UNIT2_FRONTROW_BOTTOMFLOOR,Water,2
 Node,98,MAINS PRESSURE OUTLET NODE_UNIT2_FRONTROW_BOTTOMFLOOR,Water,1
 Node,99,DHW SUPPLY OUTLET PIPE INLET NODE_UNIT2_FRONTROW_BOTTOMFLOOR,Water,1
 Node,100,DHW SUPPLY OUTLET NODE_UNIT2_FRONTROW_BOTTOMFLOOR,Water,4
 Node,101,DHW DEMAND INLET NODE_UNIT2_FRONTROW_BOTTOMFLOOR,Water,2
 Node,102,DHW DEMAND INLET PIPE OUTLET NODE_UNIT2_FRONTROW_BOTTOMFLOOR,Water,1
 Node,103,WATER SINK INLET NODE_UNIT2_FRONTROW_BOTTOMFLOOR,Water,1
 Node,104,WATER SINK OUTLET NODE_UNIT2_FRONTROW_BOTTOMFLOOR,Water,1
 Node,105,WATER SHOWER INLET NODE_UNIT2_FRONTROW_BOTTOMFLOOR,Water,1
 Node,106,WATER SHOWER OUTLET NODE_UNIT2_FRONTROW_BOTTOMFLOOR,Water,1
 Node,107,WATER CLOTHESWASHER INLET NODE_UNIT2_FRONTROW_BOTTOMFLOOR,Water,1
 Node,108,WATER CLOTHESWASHER OUTLET NODE_UNIT2_FRONTROW_BOTTOMFLOOR,Water,1
 Node,109,WATER DISHWASHER INLET NODE_UNIT2_FRONTROW_BOTTOMFLOOR,Water,1
 Node,110,WATER DISHWASHER OUTLET NODE_UNIT2_FRONTROW_BOTTOMFLOOR,Water,1
 Node,111,WATER BATH INLET NODE_UNIT2_FRONTROW_BOTTOMFLOOR,Water,1
 Node,112,WATER BATH OUTLET NODE_UNIT2_FRONTROW_BOTTOMFLOOR,Water,1
 Node,113,MAINS MAKEUP PIPE INLET NODE_UNIT2_FRONTROW_BOTTOMFLOOR,Water,1
 Node,114,MAINS MAKEUP NODE_UNIT2_FRONTROW_BOTTOMFLOOR,Water,2
 Node,115,WATER HEATER USE INLET NODE_UNIT2_FRONTROW_BOTTOMFLOOR,Water,1
 Node,116,WATER HEATER USE OUTLET NODE_UNIT2_FRONTROW_BOTTOMFLOOR,Water,1
 Node,117,MAINS INLET NODE_UNIT3_FRONTROW_BOTTOMFLOOR,Water,2
 Node,118,MAINS PRESSURE OUTLET NODE_UNIT3_FRONTROW_BOTTOMFLOOR,Water,1
 Node,119,DHW SUPPLY OUTLET PIPE INLET NODE_UNIT3_FRONTROW_BOTTOMFLOOR,Water,1
 Node,120,DHW SUPPLY OUTLET NODE_UNIT3_FRONTROW_BOTTOMFLOOR,Water,4
 Node,121,DHW DEMAND INLET NODE_UNIT3_FRONTROW_BOTTOMFLOOR,Water,2
 Node,122,DHW DEMAND INLET PIPE OUTLET NODE_UNIT3_FRONTROW_BOTTOMFLOOR,Water,1
 Node,123,WATER SINK INLET NODE_UNIT3_FRONTROW_BOTTOMFLOOR,Water,1
 Node,124,WATER SINK OUTLET NODE_UNIT3_FRONTROW_BOTTOMFLOOR,Water,1
 Node,125,WATER SHOWER INLET NODE_UNIT3_FRONTROW_BOTTOMFLOOR,Water,1
 Node,126,WATER SHOWER OUTLET NODE_UNIT3_FRONTROW_BOTTOMFLOOR,Water,1
 Node,127,WATER CLOTHESWASHER INLET NODE_UNIT3_FRONTROW_BOTTOMFLOOR,Water,1
 Node,128,WATER CLOTHESWASHER OUTLET NODE_UNIT3_FRONTROW_BOTTOMFLOOR,Water,1
 Node,129,WATER DISHWASHER INLET NODE_UNIT3_FRONTROW_BOTTOMFLOOR,Water,1
 Node,130,WATER DISHWASHER OUTLET NODE_UNIT3_FRONTROW_BOTTOMFLOOR,Water,1
 Node,131,WATER BATH INLET NODE_UNIT3_FRONTROW_BOTTOMFLOOR,Water,1
 Node,132,WATER BATH OUTLET NODE_UNIT3_FRONTROW_BOTTOMFLOOR,Water,1
 Node,133,MAINS MAKEUP PIPE INLET NODE_UNIT3_FRONTROW_BOTTOMFLOOR,Water,1
 Node,134,MAINS MAKEUP NODE_UNIT3_FRONTROW_BOTTOMFLOOR,Water,2
 Node,135,WATER HEATER USE INLET NODE_UNIT3_FRONTROW_BOTTOMFLOOR,Water,1
 Node,136,WATER HEATER USE OUTLET NODE_UNIT3_FRONTROW_BOTTOMFLOOR,Water,1
 Node,137,MAINS INLET NODE_UNIT1_BACKROW_BOTTOMFLOOR,Water,2
 Node,138,MAINS PRESSURE OUTLET NODE_UNIT1_BACKROW_BOTTOMFLOOR,Water,1
 Node,139,DHW SUPPLY OUTLET PIPE INLET NODE_UNIT1_BACKROW_BOTTOMFLOOR,Water,1
 Node,140,DHW SUPPLY OUTLET NODE_UNIT1_BACKROW_BOTTOMFLOOR,Water,4
 Node,141,DHW DEMAND INLET NODE_UNIT1_BACKROW_BOTTOMFLOOR,Water,2
 Node,142,DHW DEMAND INLET PIPE OUTLET NODE_UNIT1_BACKROW_BOTTOMFLOOR,Water,1
 Node,143,WATER SINK INLET NODE_UNIT1_BACKROW_BOTTOMFLOOR,Water,1
 Node,144,WATER SINK OUTLET NODE_UNIT1_BACKROW_BOTTOMFLOOR,Water,1
 Node,145,WATER SHOWER INLET NODE_UNIT1_BACKROW_BOTTOMFLOOR,Water,1
 Node,146,WATER SHOWER OUTLET NODE_UNIT1_BACKROW_BOTTOMFLOOR,Water,1
 Node,147,WATER CLOTHESWASHER INLET NODE_UNIT1_BACKROW_BOTTOMFLOOR,Water,1
 Node,148,WATER CLOTHESWASHER OUTLET NODE_UNIT1_BACKROW_BOTTOMFLOOR,Water,1
 Node,149,WATER DISHWASHER INLET NODE_UNIT1_BACKROW_BOTTOMFLOOR,Water,1
 Node,150,WATER DISHWASHER OUTLET NODE_UNIT1_BACKROW_BOTTOMFLOOR,Water,1
 Node,151,WATER BATH INLET NODE_UNIT1_BACKROW_BOTTOMFLOOR,Water,1
 Node,152,WATER BATH OUTLET NODE_UNIT1_BACKROW_BOTTOMFLOOR,Water,1
 Node,153,MAINS MAKEUP PIPE INLET NODE_UNIT1_BACKROW_BOTTOMFLOOR,Water,1
 Node,154,MAINS MAKEUP NODE_UNIT1_BACKROW_BOTTOMFLOOR,Water,2
 Node,155,WATER HEATER USE INLET NODE_UNIT1_BACKROW_BOTTOMFLOOR,Water,1
 Node,156,WATER HEATER USE OUTLET NODE_UNIT1_BACKROW_BOTTOMFLOOR,Water,1
 Node,157,MAINS INLET NODE_UNIT2_BACKROW_BOTTOMFLOOR,Water,2
 Node,158,MAINS PRESSURE OUTLET NODE_UNIT2_BACKROW_BOTTOMFLOOR,Water,1
 Node,159,DHW SUPPLY OUTLET PIPE INLET NODE_UNIT2_BACKROW_BOTTOMFLOOR,Water,1
 Node,160,DHW SUPPLY OUTLET NODE_UNIT2_BACKROW_BOTTOMFLOOR,Water,4
 Node,161,DHW DEMAND INLET NODE_UNIT2_BACKROW_BOTTOMFLOOR,Water,2
 Node,162,DHW DEMAND INLET PIPE OUTLET NODE_UNIT2_BACKROW_BOTTOMFLOOR,Water,1
 Node,163,WATER SINK INLET NODE_UNIT2_BACKROW_BOTTOMFLOOR,Water,1
 Node,164,WATER SINK OUTLET NODE_UNIT2_BACKROW_BOTTOMFLOOR,Water,1
 Node,165,WATER SHOWER INLET NODE_UNIT2_BACKROW_BOTTOMFLOOR,Water,1
 Node,166,WATER SHOWER OUTLET NODE_UNIT2_BACKROW_BOTTOMFLOOR,Water,1
 Node,167,WATER CLOTHESWASHER INLET NODE_UNIT2_BACKROW_BOTTOMFLOOR,Water,1
 Node,168,WATER CLOTHESWASHER OUTLET NODE_UNIT2_BACKROW_BOTTOMFLOOR,Water,1
 Node,169,WATER DISHWASHER INLET NODE_UNIT2_BACKROW_BOTTOMFLOOR,Water,1
 Node,170,WATER DISHWASHER OUTLET NODE_UNIT2_BACKROW_BOTTOMFLOOR,Water,1
 Node,171,WATER BATH INLET NODE_UNIT2_BACKROW_BOTTOMFLOOR,Water,1
 Node,172,WATER BATH OUTLET NODE_UNIT2_BACKROW_BOTTOMFLOOR,Water,1
 Node,173,MAINS MAKEUP PIPE INLET NODE_UNIT2_BACKROW_BOTTOMFLOOR,Water,1
 Node,174,MAINS MAKEUP NODE_UNIT2_BACKROW_BOTTOMFLOOR,Water,2
 Node,175,WATER HEATER USE INLET NODE_UNIT2_BACKROW_BOTTOMFLOOR,Water,1
 Node,176,WATER HEATER USE OUTLET NODE_UNIT2_BACKROW_BOTTOMFLOOR,Water,1
 Node,177,MAINS INLET NODE_UNIT3_BACKROW_BOTTOMFLOOR,Water,2
 Node,178,MAINS PRESSURE OUTLET NODE_UNIT3_BACKROW_BOTTOMFLOOR,Water,1
 Node,179,DHW SUPPLY OUTLET PIPE INLET NODE_UNIT3_BACKROW_BOTTOMFLOOR,Water,1
 Node,180,DHW SUPPLY OUTLET NODE_UNIT3_BACKROW_BOTTOMFLOOR,Water,4
 Node,181,DHW DEMAND INLET NODE_UNIT3_BACKROW_BOTTOMFLOOR,Water,2
 Node,182,DHW DEMAND INLET PIPE OUTLET NODE_UNIT3_BACKROW_BOTTOMFLOOR,Water,1
 Node,183,WATER SINK INLET NODE_UNIT3_BACKROW_BOTTOMFLOOR,Water,1
 Node,184,WATER SINK OUTLET NODE_UNIT3_BACKROW_BOTTOMFLOOR,Water,1
 Node,185,WATER SHOWER INLET NODE_UNIT3_BACKROW_BOTTOMFLOOR,Water,1
 Node,186,WATER SHOWER OUTLET NODE_UNIT3_BACKROW_BOTTOMFLOOR,Water,1
 Node,187,WATER CLOTHESWASHER INLET NODE_UNIT3_BACKROW_BOTTOMFLOOR,Water,1
 Node,188,WATER CLOTHESWASHER OUTLET NODE_UNIT3_BACKROW_BOTTOMFLOOR,Water,1
 Node,189,WATER DISHWASHER INLET NODE_UNIT3_BACKROW_BOTTOMFLOOR,Water,1
 Node,190,WATER DISHWASHER OUTLET NODE_UNIT3_BACKROW_BOTTOMFLOOR,Water,1
 Node,191,WATER BATH INLET NODE_UNIT3_BACKROW_BOTTOMFLOOR,Water,1
 Node,192,WATER BATH OUTLET NODE_UNIT3_BACKROW_BOTTOMFLOOR,Water,1
 Node,193,MAINS MAKEUP PIPE INLET NODE_UNIT3_BACKROW_BOTTOMFLOOR,Water,1
 Node,194,MAINS MAKEUP NODE_UNIT3_BACKROW_BOTTOMFLOOR,Water,2
 Node,195,WATER HEATER USE INLET NODE_UNIT3_BACKROW_BOTTOMFLOOR,Water,1
 Node,196,WATER HEATER USE OUTLET NODE_UNIT3_BACKROW_BOTTOMFLOOR,Water,1
 Node,197,MAINS INLET NODE_UNIT1_FRONTROW_MIDDLEFLOOR,Water,2
 Node,198,MAINS PRESSURE OUTLET NODE_UNIT1_FRONTROW_MIDDLEFLOOR,Water,1
 Node,199,DHW SUPPLY OUTLET PIPE INLET NODE_UNIT1_FRONTROW_MIDDLEFLOOR,Water,1
 Node,200,DHW SUPPLY OUTLET NODE_UNIT1_FRONTROW_MIDDLEFLOOR,Water,4
 Node,201,DHW DEMAND INLET NODE_UNIT1_FRONTROW_MIDDLEFLOOR,Water,2
 Node,202,DHW DEMAND INLET PIPE OUTLET NODE_UNIT1_FRONTROW_MIDDLEFLOOR,Water,1
 Node,203,WATER SINK INLET NODE_UNIT1_FRONTROW_MIDDLEFLOOR,Water,1
 Node,204,WATER SINK OUTLET NODE_UNIT1_FRONTROW_MIDDLEFLOOR,Water,1
 Node,205,WATER SHOWER INLET NODE_UNIT1_FRONTROW_MIDDLEFLOOR,Water,1
 Node,206,WATER SHOWER OUTLET NODE_UNIT1_FRONTROW_MIDDLEFLOOR,Water,1
 Node,207,WATER CLOTHESWASHER INLET NODE_UNIT1_FRONTROW_MIDDLEFLOOR,Water,1
 Node,208,WATER CLOTHESWASHER OUTLET NODE_UNIT1_FRONTROW_MIDDLEFLOOR,Water,1
 Node,209,WATER DISHWASHER INLET NODE_UNIT1_FRONTROW_MIDDLEFLOOR,Water,1
 Node,210,WATER DISHWASHER OUTLET NODE_UNIT1_FRONTROW_MIDDLEFLOOR,Water,1
 Node,211,WATER BATH INLET NODE_UNIT1_FRONTROW_MIDDLEFLOOR,Water,1
 Node,212,WATER BATH OUTLET NODE_UNIT1_FRONTROW_MIDDLEFLOOR,Water,1
 Node,213,MAINS MAKEUP PIPE INLET NODE_UNIT1_FRONTROW_MIDDLEFLOOR,Water,1
 Node,214,MAINS MAKEUP NODE_UNIT1_FRONTROW_MIDDLEFLOOR,Water,2
 Node,215,WATER HEATER USE INLET NODE_UNIT1_FRONTROW_MIDDLEFLOOR,Water,1
 Node,216,WATER HEATER USE OUTLET NODE_UNIT1_FRONTROW_MIDDLEFLOOR,Water,1
 Node,217,MAINS INLET NODE_UNIT2_FRONTROW_MIDDLEFLOOR,Water,2
 Node,218,MAINS PRESSURE OUTLET NODE_UNIT2_FRONTROW_MIDDLEFLOOR,Water,1
 Node,219,DHW SUPPLY OUTLET PIPE INLET NODE_UNIT2_FRONTROW_MIDDLEFLOOR,Water,1
 Node,220,DHW SUPPLY OUTLET NODE_UNIT2_FRONTROW_MIDDLEFLOOR,Water,4
 Node,221,DHW DEMAND INLET NODE_UNIT2_FRONTROW_MIDDLEFLOOR,Water,2
 Node,222,DHW DEMAND INLET PIPE OUTLET NODE_UNIT2_FRONTROW_MIDDLEFLOOR,Water,1
 Node,223,WATER SINK INLET NODE_UNIT2_FRONTROW_MIDDLEFLOOR,Water,1
 Node,224,WATER SINK OUTLET NODE_UNIT2_FRONTROW_MIDDLEFLOOR,Water,1
 Node,225,WATER SHOWER INLET NODE_UNIT2_FRONTROW_MIDDLEFLOOR,Water,1
 Node,226,WATER SHOWER OUTLET NODE_UNIT2_FRONTROW_MIDDLEFLOOR,Water,1
 Node,227,WATER CLOTHESWASHER INLET NODE_UNIT2_FRONTROW_MIDDLEFLOOR,Water,1
 Node,228,WATER CLOTHESWASHER OUTLET NODE_UNIT2_FRONTROW_MIDDLEFLOOR,Water,1
 Node,229,WATER DISHWASHER INLET NODE_UNIT2_FRONTROW_MIDDLEFLOOR,Water,1
 Node,230,WATER DISHWASHER OUTLET NODE_UNIT2_FRONTROW_MIDDLEFLOOR,Water,1
 Node,231,WATER BATH INLET NODE_UNIT2_FRONTROW_MIDDLEFLOOR,Water,1
 Node,232,WATER BATH OUTLET NODE_UNIT2_FRONTROW_MIDDLEFLOOR,Water,1
 Node,233,MAINS MAKEUP PIPE INLET NODE_UNIT2_FRONTROW_MIDDLEFLOOR,Water,1
 Node,234,MAINS MAKEUP NODE_UNIT2_FRONTROW_MIDDLEFLOOR,Water,2
 Node,235,WATER HEATER USE INLET NODE_UNIT2_FRONTROW_MIDDLEFLOOR,Water,1
 Node,236,WATER HEATER USE OUTLET NODE_UNIT2_FRONTROW_MIDDLEFLOOR,Water,1
 Node,237,MAINS INLET NODE_UNIT3_FRONTROW_MIDDLEFLOOR,Water,2
 Node,238,MAINS PRESSURE OUTLET NODE_UNIT3_FRONTROW_MIDDLEFLOOR,Water,1
 Node,239,DHW SUPPLY OUTLET PIPE INLET NODE_UNIT3_FRONTROW_MIDDLEFLOOR,Water,1
 Node,240,DHW SUPPLY OUTLET NODE_UNIT3_FRONTROW_MIDDLEFLOOR,Water,4
 Node,241,DHW DEMAND INLET NODE_UNIT3_FRONTROW_MIDDLEFLOOR,Water,2
 Node,242,DHW DEMAND INLET PIPE OUTLET NODE_UNIT3_FRONTROW_MIDDLEFLOOR,Water,1
 Node,243,WATER SINK INLET NODE_UNIT3_FRONTROW_MIDDLEFLOOR,Water,1
 Node,244,WATER SINK OUTLET NODE_UNIT3_FRONTROW_MIDDLEFLOOR,Water,1
 Node,245,WATER SHOWER INLET NODE_UNIT3_FRONTROW_MIDDLEFLOOR,Water,1
 Node,246,WATER SHOWER OUTLET NODE_UNIT3_FRONTROW_MIDDLEFLOOR,Water,1
 Node,247,WATER CLOTHESWASHER INLET NODE_UNIT3_FRONTROW_MIDDLEFLOOR,Water,1
 Node,248,WATER CLOTHESWASHER OUTLET NODE_UNIT3_FRONTROW_MIDDLEFLOOR,Water,1
 Node,249,WATER DISHWASHER INLET NODE_UNIT3_FRONTROW_MIDDLEFLOOR,Water,1
 Node,250,WATER DISHWASHER OUTLET NODE_UNIT3_FRONTROW_MIDDLEFLOOR,Water,1
 Node,251,WATER BATH INLET NODE_UNIT3_FRONTROW_MIDDLEFLOOR,Water,1
 Node,252,WATER BATH OUTLET NODE_UNIT3_FRONTROW_MIDDLEFLOOR,Water,1
 Node,253,MAINS MAKEUP PIPE INLET NODE_UNIT3_FRONTROW_MIDDLEFLOOR,Water,1
 Node,254,MAINS MAKEUP NODE_UNIT3_FRONTROW_MIDDLEFLOOR,Water,2
 Node,255,WATER HEATER USE INLET NODE_UNIT3_FRONTROW_MIDDLEFLOOR,Water,1
 Node,256,WATER HEATER USE OUTLET NODE_UNIT3_FRONTROW_MIDDLEFLOOR,Water,1
 Node,257,MAINS INLET NODE_UNIT1_BACKROW_MIDDLEFLOOR,Water,2
 Node,258,MAINS PRESSURE OUTLET NODE_UNIT1_BACKROW_MIDDLEFLOOR,Water,1
 Node,259,DHW SUPPLY OUTLET PIPE INLET NODE_UNIT1_BACKROW_MIDDLEFLOOR,Water,1
 Node,260,DHW SUPPLY OUTLET NODE_UNIT1_BACKROW_MIDDLEFLOOR,Water,4
 Node,261,DHW DEMAND INLET NODE_UNIT1_BACKROW_MIDDLEFLOOR,Water,2
 Node,262,DHW DEMAND INLET PIPE OUTLET NODE_UNIT1_BACKROW_MIDDLEFLOOR,Water,1
 Node,263,WATER SINK INLET NODE_UNIT1_BACKROW_MIDDLEFLOOR,Water,1
 Node,264,WATER SINK OUTLET NODE_UNIT1_BACKROW_MIDDLEFLOOR,Water,1
 Node,265,WATER SHOWER INLET NODE_UNIT1_BACKROW_MIDDLEFLOOR,Water,1
 Node,266,WATER SHOWER OUTLET NODE_UNIT1_BACKROW_MIDDLEFLOOR,Water,1
 Node,267,WATER CLOTHESWASHER INLET NODE_UNIT1_BACKROW_MIDDLEFLOOR,Water,1
 Node,268,WATER CLOTHESWASHER OUTLET NODE_UNIT1_BACKROW_MIDDLEFLOOR,Water,1
 Node,269,WATER DISHWASHER INLET NODE_UNIT1_BACKROW_MIDDLEFLOOR,Water,1
 Node,270,WATER DISHWASHER OUTLET NODE_UNIT1_BACKROW_MIDDLEFLOOR,Water,1
 Node,271,WATER BATH INLET NODE_UNIT1_BACKROW_MIDDLEFLOOR,Water,1
 Node,272,WATER BATH OUTLET NODE_UNIT1_BACKROW_MIDDLEFLOOR,Water,1
 Node,273,MAINS MAKEUP PIPE INLET NODE_UNIT1_BACKROW_MIDDLEFLOOR,Water,1
 Node,274,MAINS MAKEUP NODE_UNIT1_BACKROW_MIDDLEFLOOR,Water,2
 Node,275,WATER HEATER USE INLET NODE_UNIT1_BACKROW_MIDDLEFLOOR,Water,1
 Node,276,WATER HEATER USE OUTLET NODE_UNIT1_BACKROW_MIDDLEFLOOR,Water,1
 Node,277,MAINS INLET NODE_UNIT2_BACKROW_MIDDLEFLOOR,Water,2
 Node,278,MAINS PRESSURE OUTLET NODE_UNIT2_BACKROW_MIDDLEFLOOR,Water,1
 Node,279,DHW SUPPLY OUTLET PIPE INLET NODE_UNIT2_BACKROW_MIDDLEFLOOR,Water,1
 Node,280,DHW SUPPLY OUTLET NODE_UNIT2_BACKROW_MIDDLEFLOOR,Water,4
 Node,281,DHW DEMAND INLET NODE_UNIT2_BACKROW_MIDDLEFLOOR,Water,2
 Node,282,DHW DEMAND INLET PIPE OUTLET NODE_UNIT2_BACKROW_MIDDLEFLOOR,Water,1
 Node,283,WATER SINK INLET NODE_UNIT2_BACKROW_MIDDLEFLOOR,Water,1
 Node,284,WATER SINK OUTLET NODE_UNIT2_BACKROW_MIDDLEFLOOR,Water,1
 Node,285,WATER SHOWER INLET NODE_UNIT2_BACKROW_MIDDLEFLOOR,Water,1
 Node,286,WATER SHOWER OUTLET NODE_UNIT2_BACKROW_MIDDLEFLOOR,Water,1
 Node,287,WATER CLOTHESWASHER INLET NODE_UNIT2_BACKROW_MIDDLEFLOOR,Water,1
 Node,288,WATER CLOTHESWASHER OUTLET NODE_UNIT2_BACKROW_MIDDLEFLOOR,Water,1
 Node,289,WATER DISHWASHER INLET NODE_UNIT2_BACKROW_MIDDLEFLOOR,Water,1
 Node,290,WATER DISHWASHER OUTLET NODE_UNIT2_BACKROW_MIDDLEFLOOR,Water,1
 Node,291,WATER BATH INLET NODE_UNIT2_BACKROW_MIDDLEFLOOR,Water,1
 Node,292,WATER BATH OUTLET NODE_UNIT2_BACKROW_MIDDLEFLOOR,Water,1
 Node,293,MAINS MAKEUP PIPE INLET NODE_UNIT2_BACKROW_MIDDLEFLOOR,Water,1
 Node,294,MAINS MAKEUP NODE_UNIT2_BACKROW_MIDDLEFLOOR,Water,2
 Node,295,WATER HEATER USE INLET NODE_UNIT2_BACKROW_MIDDLEFLOOR,Water,1
 Node,296,WATER HEATER USE OUTLET NODE_UNIT2_BACKROW_MIDDLEFLOOR,Water,1
 Node,297,MAINS INLET NODE_UNIT3_BACKROW_MIDDLEFLOOR,Water,2
 Node,298,MAINS PRESSURE OUTLET NODE_UNIT3_BACKROW_MIDDLEFLOOR,Water,1
 Node,299,DHW SUPPLY OUTLET PIPE INLET NODE_UNIT3_BACKROW_MIDDLEFLOOR,Water,1
 Node,300,DHW SUPPLY OUTLET NODE_UNIT3_BACKROW_MIDDLEFLOOR,Water,4
 Node,301,DHW DEMAND INLET NODE_UNIT3_BACKROW_MIDDLEFLOOR,Water,2
 Node,302,DHW DEMAND INLET PIPE OUTLET NODE_UNIT3_BACKROW_MIDDLEFLOOR,Water,1
 Node,303,WATER SINK INLET NODE_UNIT3_BACKROW_MIDDLEFLOOR,Water,1
 Node,304,WATER SINK OUTLET NODE_UNIT3_BACKROW_MIDDLEFLOOR,Water,1
 Node,305,WATER SHOWER INLET NODE_UNIT3_BACKROW_MIDDLEFLOOR,Water,1
 Node,306,WATER SHOWER OUTLET NODE_UNIT3_BACKROW_MIDDLEFLOOR,Water,1
 Node,307,WATER CLOTHESWASHER INLET NODE_UNIT3_BACKROW_MIDDLEFLOOR,Water,1
 Node,308,WATER CLOTHESWASHER OUTLET NODE_UNIT3_BACKROW_MIDDLEFLOOR,Water,1
 Node,309,WATER DISHWASHER INLET NODE_UNIT3_BACKROW_MIDDLEFLOOR,Water,1
 Node,310,WATER DISHWASHER OUTLET NODE_UNIT3_BACKROW_MIDDLEFLOOR,Water,1
 Node,311,WATER BATH INLET NODE_UNIT3_BACKROW_MIDDLEFLOOR,Water,1
 Node,312,WATER BATH OUTLET NODE_UNIT3_BACKROW_MIDDLEFLOOR,Water,1
 Node,313,MAINS MAKEUP PIPE INLET NODE_UNIT3_BACKROW_MIDDLEFLOOR,Water,1
 Node,314,MAINS MAKEUP NODE_UNIT3_BACKROW_MIDDLEFLOOR,Water,2
 Node,315,WATER HEATER USE INLET NODE_UNIT3_BACKROW_MIDDLEFLOOR,Water,1
 Node,316,WATER HEATER USE OUTLET NODE_UNIT3_BACKROW_MIDDLEFLOOR,Water,1
 Node,317,MAINS INLET NODE_UNIT1_FRONTROW_TOPFLOOR,Water,2
 Node,318,MAINS PRESSURE OUTLET NODE_UNIT1_FRONTROW_TOPFLOOR,Water,1
 Node,319,DHW SUPPLY OUTLET PIPE INLET NODE_UNIT1_FRONTROW_TOPFLOOR,Water,1
 Node,320,DHW SUPPLY OUTLET NODE_UNIT1_FRONTROW_TOPFLOOR,Water,4
 Node,321,DHW DEMAND INLET NODE_UNIT1_FRONTROW_TOPFLOOR,Water,2
 Node,322,DHW DEMAND INLET PIPE OUTLET NODE_UNIT1_FRONTROW_TOPFLOOR,Water,1
 Node,323,WATER SINK INLET NODE_UNIT1_FRONTROW_TOPFLOOR,Water,1
 Node,324,WATER SINK OUTLET NODE_UNIT1_FRONTROW_TOPFLOOR,Water,1
 Node,325,WATER SHOWER INLET NODE_UNIT1_FRONTROW_TOPFLOOR,Water,1
 Node,326,WATER SHOWER OUTLET NODE_UNIT1_FRONTROW_TOPFLOOR,Water,1
 Node,327,WATER CLOTHESWASHER INLET NODE_UNIT1_FRONTROW_TOPFLOOR,Water,1
 Node,328,WATER CLOTHESWASHER OUTLET NODE_UNIT1_FRONTROW_TOPFLOOR,Water,1
 Node,329,WATER DISHWASHER INLET NODE_UNIT1_FRONTROW_TOPFLOOR,Water,1
 Node,330,WATER DISHWASHER OUTLET NODE_UNIT1_FRONTROW_TOPFLOOR,Water,1
 Node,331,WATER BATH INLET NODE_UNIT1_FRONTROW_TOPFLOOR,Water,1
 Node,332,WATER BATH OUTLET NODE_UNIT1_FRONTROW_TOPFLOOR,Water,1
 Node,333,MAINS MAKEUP PIPE INLET NODE_UNIT1_FRONTROW_TOPFLOOR,Water,1
 Node,334,MAINS MAKEUP NODE_UNIT1_FRONTROW_TOPFLOOR,Water,2
 Node,335,WATER HEATER USE INLET NODE_UNIT1_FRONTROW_TOPFLOOR,Water,1
 Node,336,WATER HEATER USE OUTLET NODE_UNIT1_FRONTROW_TOPFLOOR,Water,1
 Node,337,MAINS INLET NODE_UNIT2_FRONTROW_TOPFLOOR,Water,2
 Node,338,MAINS PRESSURE OUTLET NODE_UNIT2_FRONTROW_TOPFLOOR,Water,1
 Node,339,DHW SUPPLY OUTLET PIPE INLET NODE_UNIT2_FRONTROW_TOPFLOOR,Water,1
 Node,340,DHW SUPPLY OUTLET NODE_UNIT2_FRONTROW_TOPFLOOR,Water,4
 Node,341,DHW DEMAND INLET NODE_UNIT2_FRONTROW_TOPFLOOR,Water,2
 Node,342,DHW DEMAND INLET PIPE OUTLET NODE_UNIT2_FRONTROW_TOPFLOOR,Water,1
 Node,343,WATER SINK INLET NODE_UNIT2_FRONTROW_TOPFLOOR,Water,1
 Node,344,WATER SINK OUTLET NODE_UNIT2_FRONTROW_TOPFLOOR,Water,1
 Node,345,WATER SHOWER INLET NODE_UNIT2_FRONTROW_TOPFLOOR,Water,1
 Node,346,WATER SHOWER OUTLET NODE_UNIT2_FRONTROW_TOPFLOOR,Water,1
 Node,347,WATER CLOTHESWASHER INLET NODE_UNIT2_FRONTROW_TOPFLOOR,Water,1
 Node,348,WATER CLOTHESWASHER OUTLET NODE_UNIT2_FRONTROW_TOPFLOOR,Water,1
 Node,349,WATER DISHWASHER INLET NODE_UNIT2_FRONTROW_TOPFLOOR,Water,1
 Node,350,WATER DISHWASHER OUTLET NODE_UNIT2_FRONTROW_TOPFLOOR,Water,1
 Node,351,WATER BATH INLET NODE_UNIT2_FRONTROW_TOPFLOOR,Water,1
 Node,352,WATER BATH OUTLET NODE_UNIT2_FRONTROW_TOPFLOOR,Water,1
 Node,353,MAINS MAKEUP PIPE INLET NODE_UNIT2_FRONTROW_TOPFLOOR,Water,1
 Node,354,MAINS MAKEUP NODE_UNIT2_FRONTROW_TOPFLOOR,Water,2
 Node,355,WATER HEATER USE INLET NODE_UNIT2_FRONTROW_TOPFLOOR,Water,1
 Node,356,WATER HEATER USE OUTLET NODE_UNIT2_FRONTROW_TOPFLOOR,Water,1
 Node,357,MAINS INLET NODE_UNIT3_FRONTROW_TOPFLOOR,Water,2
 Node,358,MAINS PRESSURE OUTLET NODE_UNIT3_FRONTROW_TOPFLOOR,Water,1
 Node,359,DHW SUPPLY OUTLET PIPE INLET NODE_UNIT3_FRONTROW_TOPFLOOR,Water,1
 Node,360,DHW SUPPLY OUTLET NODE_UNIT3_FRONTROW_TOPFLOOR,Water,4
 Node,361,DHW DEMAND INLET NODE_UNIT3_FRONTROW_TOPFLOOR,Water,2
 Node,362,DHW DEMAND INLET PIPE OUTLET NODE_UNIT3_FRONTROW_TOPFLOOR,Water,1
 Node,363,WATER SINK INLET NODE_UNIT3_FRONTROW_TOPFLOOR,Water,1
 Node,364,WATER SINK OUTLET NODE_UNIT3_FRONTROW_TOPFLOOR,Water,1
 Node,365,WATER SHOWER INLET NODE_UNIT3_FRONTROW_TOPFLOOR,Water,1
 Node,366,WATER SHOWER OUTLET NODE_UNIT3_FRONTROW_TOPFLOOR,Water,1
 Node,367,WATER CLOTHESWASHER INLET NODE_UNIT3_FRONTROW_TOPFLOOR,Water,1
 Node,368,WATER CLOTHESWASHER OUTLET NODE_UNIT3_FRONTROW_TOPFLOOR,Water,1
 Node,369,WATER DISHWASHER INLET NODE_UNIT3_FRONTROW_TOPFLOOR,Water,1
 Node,370,WATER DISHWASHER OUTLET NODE_UNIT3_FRONTROW_TOPFLOOR,Water,1
 Node,371,WATER BATH INLET NODE_UNIT3_FRONTROW_TOPFLOOR,Water,1
 Node,372,WATER BATH OUTLET NODE_UNIT3_FRONTROW_TOPFLOOR,Water,1
 Node,373,MAINS MAKEUP PIPE INLET NODE_UNIT3_FRONTROW_TOPFLOOR,Water,1
 Node,374,MAINS MAKEUP NODE_UNIT3_FRONTROW_TOPFLOOR,Water,2
 Node,375,WATER HEATER USE INLET NODE_UNIT3_FRONTROW_TOPFLOOR,Water,1
 Node,376,WATER HEATER USE OUTLET NODE_UNIT3_FRONTROW_TOPFLOOR,Water,1
 Node,377,MAINS INLET NODE_UNIT1_BACKROW_TOPFLOOR,Water,2
 Node,378,MAINS PRESSURE OUTLET NODE_UNIT1_BACKROW_TOPFLOOR,Water,1
 Node,379,DHW SUPPLY OUTLET PIPE INLET NODE_UNIT1_BACKROW_TOPFLOOR,Water,1
 Node,380,DHW SUPPLY OUTLET NODE_UNIT1_BACKROW_TOPFLOOR,Water,4
 Node,381,DHW DEMAND INLET NODE_UNIT1_BACKROW_TOPFLOOR,Water,2
 Node,382,DHW DEMAND INLET PIPE OUTLET NODE_UNIT1_BACKROW_TOPFLOOR,Water,1
 Node,383,WATER SINK INLET NODE_UNIT1_BACKROW_TOPFLOOR,Water,1
 Node,384,WATER SINK OUTLET NODE_UNIT1_BACKROW_TOPFLOOR,Water,1
 Node,385,WATER SHOWER INLET NODE_UNIT1_BACKROW_TOPFLOOR,Water,1
 Node,386,WATER SHOWER OUTLET NODE_UNIT1_BACKROW_TOPFLOOR,Water,1
 Node,387,WATER CLOTHESWASHER INLET NODE_UNIT1_BACKROW_TOPFLOOR,Water,1
 Node,388,WATER CLOTHESWASHER OUTLET NODE_UNIT1_BACKROW_TOPFLOOR,Water,1
 Node,389,WATER DISHWASHER INLET NODE_UNIT1_BACKROW_TOPFLOOR,Water,1
 Node,390,WATER DISHWASHER OUTLET NODE_UNIT1_BACKROW_TOPFLOOR,Water,1
 Node,391,WATER BATH INLET NODE_UNIT1_BACKROW_TOPFLOOR,Water,1
 Node,392,WATER BATH OUTLET NODE_UNIT1_BACKROW_TOPFLOOR,Water,1
 Node,393,MAINS MAKEUP PIPE INLET NODE_UNIT1_BACKROW_TOPFLOOR,Water,1
 Node,394,MAINS MAKEUP NODE_UNIT1_BACKROW_TOPFLOOR,Water,2
 Node,395,WATER HEATER USE INLET NODE_UNIT1_BACKROW_TOPFLOOR,Water,1
 Node,396,WATER HEATER USE OUTLET NODE_UNIT1_BACKROW_TOPFLOOR,Water,1
 Node,397,MAINS INLET NODE_UNIT2_BACKROW_TOPFLOOR,Water,2
 Node,398,MAINS PRESSURE OUTLET NODE_UNIT2_BACKROW_TOPFLOOR,Water,1
 Node,399,DHW SUPPLY OUTLET PIPE INLET NODE_UNIT2_BACKROW_TOPFLOOR,Water,1
 Node,400,DHW SUPPLY OUTLET NODE_UNIT2_BACKROW_TOPFLOOR,Water,4
 Node,401,DHW DEMAND INLET NODE_UNIT2_BACKROW_TOPFLOOR,Water,2
 Node,402,DHW DEMAND INLET PIPE OUTLET NODE_UNIT2_BACKROW_TOPFLOOR,Water,1
 Node,403,WATER SINK INLET NODE_UNIT2_BACKROW_TOPFLOOR,Water,1
 Node,404,WATER SINK OUTLET NODE_UNIT2_BACKROW_TOPFLOOR,Water,1
 Node,405,WATER SHOWER INLET NODE_UNIT2_BACKROW_TOPFLOOR,Water,1
 Node,406,WATER SHOWER OUTLET NODE_UNIT2_BACKROW_TOPFLOOR,Water,1
 Node,407,WATER CLOTHESWASHER INLET NODE_UNIT2_BACKROW_TOPFLOOR,Water,1
 Node,408,WATER CLOTHESWASHER OUTLET NODE_UNIT2_BACKROW_TOPFLOOR,Water,1
 Node,409,WATER DISHWASHER INLET NODE_UNIT2_BACKROW_TOPFLOOR,Water,1
 Node,410,WATER DISHWASHER OUTLET NODE_UNIT2_BACKROW_TOPFLOOR,Water,1
 Node,411,WATER BATH INLET NODE_UNIT2_BACKROW_TOPFLOOR,Water,1
 Node,412,WATER BATH OUTLET NODE_UNIT2_BACKROW_TOPFLOOR,Water,1
 Node,413,MAINS MAKEUP PIPE INLET NODE_UNIT2_BACKROW_TOPFLOOR,Water,1
 Node,414,MAINS MAKEUP NODE_UNIT2_BACKROW_TOPFLOOR,Water,2
 Node,415,WATER HEATER USE INLET NODE_UNIT2_BACKROW_TOPFLOOR,Water,1
 Node,416,WATER HEATER USE OUTLET NODE_UNIT2_BACKROW_TOPFLOOR,Water,1
 Node,417,MAINS INLET NODE_UNIT3_BACKROW_TOPFLOOR,Water,2
 Node,418,MAINS PRESSURE OUTLET NODE_UNIT3_BACKROW_TOPFLOOR,Water,1
 Node,419,DHW SUPPLY OUTLET PIPE INLET NODE_UNIT3_BACKROW_TOPFLOOR,Water,1
 Node,420,DHW SUPPLY OUTLET NODE_UNIT3_BACKROW_TOPFLOOR,Water,4
 Node,421,DHW DEMAND INLET NODE_UNIT3_BACKROW_TOPFLOOR,Water,2
 Node,422,DHW DEMAND INLET PIPE OUTLET NODE_UNIT3_BACKROW_TOPFLOOR,Water,1
 Node,423,WATER SINK INLET NODE_UNIT3_BACKROW_TOPFLOOR,Water,1
 Node,424,WATER SINK OUTLET NODE_UNIT3_BACKROW_TOPFLOOR,Water,1
 Node,425,WATER SHOWER INLET NODE_UNIT3_BACKROW_TOPFLOOR,Water,1
 Node,426,WATER SHOWER OUTLET NODE_UNIT3_BACKROW_TOPFLOOR,Water,1
 Node,427,WATER CLOTHESWASHER INLET NODE_UNIT3_BACKROW_TOPFLOOR,Water,1
 Node,428,WATER CLOTHESWASHER OUTLET NODE_UNIT3_BACKROW_TOPFLOOR,Water,1
 Node,429,WATER DISHWASHER INLET NODE_UNIT3_BACKROW_TOPFLOOR,Water,1
 Node,430,WATER DISHWASHER OUTLET NODE_UNIT3_BACKROW_TOPFLOOR,Water,1
 Node,431,WATER BATH INLET NODE_UNIT3_BACKROW_TOPFLOOR,Water,1
 Node,432,WATER BATH OUTLET NODE_UNIT3_BACKROW_TOPFLOOR,Water,1
 Node,433,MAINS MAKEUP PIPE INLET NODE_UNIT3_BACKROW_TOPFLOOR,Water,1
 Node,434,MAINS MAKEUP NODE_UNIT3_BACKROW_TOPFLOOR,Water,2
 Node,435,WATER HEATER USE INLET NODE_UNIT3_BACKROW_TOPFLOOR,Water,1
 Node,436,WATER HEATER USE OUTLET NODE_UNIT3_BACKROW_TOPFLOOR,Water,1
 Node,437,ZONE NODE_UNIT1_FRONTROW_BOTTOMFLOOR,Air,0
 Node,438,ZONE EXHAUST NODE_UNIT1_FRONTROW_BOTTOMFLOOR,Air,2
 Node,439,ZONE OUTLET NODE_UNIT1_FRONTROW_BOTTOMFLOOR,Air,1
 Node,440,ZONE NODE_UNIT2_FRONTROW_BOTTOMFLOOR,Air,0
 Node,441,ZONE EXHAUST NODE_UNIT2_FRONTROW_BOTTOMFLOOR,Air,2
 Node,442,ZONE OUTLET NODE_UNIT2_FRONTROW_BOTTOMFLOOR,Air,1
 Node,443,ZONE NODE_UNIT3_FRONTROW_BOTTOMFLOOR,Air,0
 Node,444,ZONE EXHAUST NODE_UNIT3_FRONTROW_BOTTOMFLOOR,Air,2
 Node,445,ZONE OUTLET NODE_UNIT3_FRONTROW_BOTTOMFLOOR,Air,1
 Node,446,ZONE NODE_UNIT1_BACKROW_BOTTOMFLOOR,Air,0
 Node,447,ZONE EXHAUST NODE_UNIT1_BACKROW_BOTTOMFLOOR,Air,2
 Node,448,ZONE OUTLET NODE_UNIT1_BACKROW_BOTTOMFLOOR,Air,1
 Node,449,ZONE NODE_UNIT2_BACKROW_BOTTOMFLOOR,Air,0
 Node,450,ZONE EXHAUST NODE_UNIT2_BACKROW_BOTTOMFLOOR,Air,2
 Node,451,ZONE OUTLET NODE_UNIT2_BACKROW_BOTTOMFLOOR,Air,1
 Node,452,ZONE NODE_UNIT3_BACKROW_BOTTOMFLOOR,Air,0
 Node,453,ZONE EXHAUST NODE_UNIT3_BACKROW_BOTTOMFLOOR,Air,2
 Node,454,ZONE OUTLET NODE_UNIT3_BACKROW_BOTTOMFLOOR,Air,1
 Node,455,ZONE NODE_UNIT1_FRONTROW_MIDDLEFLOOR,Air,0
 Node,456,ZONE EXHAUST NODE_UNIT1_FRONTROW_MIDDLEFLOOR,Air,2
 Node,457,ZONE OUTLET NODE_UNIT1_FRONTROW_MIDDLEFLOOR,Air,1
 Node,458,ZONE NODE_UNIT2_FRONTROW_MIDDLEFLOOR,Air,0
 Node,459,ZONE EXHAUST NODE_UNIT2_FRONTROW_MIDDLEFLOOR,Air,2
 Node,460,ZONE OUTLET NODE_UNIT2_FRONTROW_MIDDLEFLOOR,Air,1
 Node,461,ZONE NODE_UNIT3_FRONTROW_MIDDLEFLOOR,Air,0
 Node,462,ZONE EXHAUST NODE_UNIT3_FRONTROW_MIDDLEFLOOR,Air,2
 Node,463,ZONE OUTLET NODE_UNIT3_FRONTROW_MIDDLEFLOOR,Air,1
 Node,464,ZONE NODE_UNIT1_BACKROW_MIDDLEFLOOR,Air,0
 Node,465,ZONE EXHAUST NODE_UNIT1_BACKROW_MIDDLEFLOOR,Air,2
 Node,466,ZONE OUTLET NODE_UNIT1_BACKROW_MIDDLEFLOOR,Air,1
 Node,467,ZONE NODE_UNIT2_BACKROW_MIDDLEFLOOR,Air,0
 Node,468,ZONE EXHAUST NODE_UNIT2_BACKROW_MIDDLEFLOOR,Air,2
 Node,469,ZONE OUTLET NODE_UNIT2_BACKROW_MIDDLEFLOOR,Air,1
 Node,470,ZONE NODE_UNIT3_BACKROW_MIDDLEFLOOR,Air,0
 Node,471,ZONE EXHAUST NODE_UNIT3_BACKROW_MIDDLEFLOOR,Air,2
 Node,472,ZONE OUTLET NODE_UNIT3_BACKROW_MIDDLEFLOOR,Air,1
 Node,473,ZONE NODE_UNIT1_FRONTROW_TOPFLOOR,Air,0
 Node,474,ZONE EXHAUST NODE_UNIT1_FRONTROW_TOPFLOOR,Air,2
 Node,475,ZONE OUTLET NODE_UNIT1_FRONTROW_TOPFLOOR,Air,1
 Node,476,ZONE NODE_UNIT2_FRONTROW_TOPFLOOR,Air,0
 Node,477,ZONE EXHAUST NODE_UNIT2_FRONTROW_TOPFLOOR,Air,2
 Node,478,ZONE OUTLET NODE_UNIT2_FRONTROW_TOPFLOOR,Air,1
 Node,479,ZONE NODE_UNIT3_FRONTROW_TOPFLOOR,Air,0
 Node,480,ZONE EXHAUST NODE_UNIT3_FRONTROW_TOPFLOOR,Air,2
 Node,481,ZONE OUTLET NODE_UNIT3_FRONTROW_TOPFLOOR,Air,1
 Node,482,ZONE NODE_UNIT1_BACKROW_TOPFLOOR,Air,0
 Node,483,ZONE EXHAUST NODE_UNIT1_BACKROW_TOPFLOOR,Air,2
 Node,484,ZONE OUTLET NODE_UNIT1_BACKROW_TOPFLOOR,Air,1
 Node,485,ZONE NODE_UNIT2_BACKROW_TOPFLOOR,Air,0
 Node,486,ZONE EXHAUST NODE_UNIT2_BACKROW_TOPFLOOR,Air,2
 Node,487,ZONE OUTLET NODE_UNIT2_BACKROW_TOPFLOOR,Air,1
 Node,488,ZONE NODE_UNIT3_BACKROW_TOPFLOOR,Air,0
 Node,489,ZONE EXHAUST NODE_UNIT3_BACKROW_TOPFLOOR,Air,2
 Node,490,ZONE OUTLET NODE_UNIT3_BACKROW_TOPFLOOR,Air,1
 Node,491,ZONE NODE_UNITHEATEDBSMT,Air,0
 Node,492,ZONE EXHAUST NODE_UNITHEATEDBSMT,Air,2
 Node,493,ZONE OUTLET NODE_UNITHEATEDBSMT,Air,1
 Node,494,ZONE EQUIPMENT INLET NODE_UNIT1_FRONTROW_BOTTOMFLOOR,Air,2
 Node,495,ZONE EQUIPMENT INLET NODE_UNIT2_FRONTROW_BOTTOMFLOOR,Air,2
 Node,496,ZONE EQUIPMENT INLET NODE_UNIT3_FRONTROW_BOTTOMFLOOR,Air,2
 Node,497,ZONE EQUIPMENT INLET NODE_UNIT1_BACKROW_BOTTOMFLOOR,Air,2
 Node,498,ZONE EQUIPMENT INLET NODE_UNIT2_BACKROW_BOTTOMFLOOR,Air,2
 Node,499,ZONE EQUIPMENT INLET NODE_UNIT3_BACKROW_BOTTOMFLOOR,Air,2
 Node,500,ZONE EQUIPMENT INLET NODE_UNIT1_FRONTROW_MIDDLEFLOOR,Air,2
 Node,501,ZONE EQUIPMENT INLET NODE_UNIT2_FRONTROW_MIDDLEFLOOR,Air,2
 Node,502,ZONE EQUIPMENT INLET NODE_UNIT3_FRONTROW_MIDDLEFLOOR,Air,2
 Node,503,ZONE EQUIPMENT INLET NODE_UNIT1_BACKROW_MIDDLEFLOOR,Air,2
 Node,504,ZONE EQUIPMENT INLET NODE_UNIT2_BACKROW_MIDDLEFLOOR,Air,2
 Node,505,ZONE EQUIPMENT INLET NODE_UNIT3_BACKROW_MIDDLEFLOOR,Air,2
 Node,506,ZONE EQUIPMENT INLET NODE_UNIT1_FRONTROW_TOPFLOOR,Air,2
 Node,507,ZONE EQUIPMENT INLET NODE_UNIT2_FRONTROW_TOPFLOOR,Air,2
 Node,508,ZONE EQUIPMENT INLET NODE_UNIT3_FRONTROW_TOPFLOOR,Air,2
 Node,509,ZONE EQUIPMENT INLET NODE_UNIT1_BACKROW_TOPFLOOR,Air,2
 Node,510,ZONE EQUIPMENT INLET NODE_UNIT2_BACKROW_TOPFLOOR,Air,2
 Node,511,ZONE EQUIPMENT INLET NODE_UNIT3_BACKROW_TOPFLOOR,Air,2
 Node,512,ZONE EQUIPMENT INLET NODE_UNITHEATEDBSMT,Air,2
 Node,513,RETURN AIR MIXER OUTLET_UNIT1_FRONTROW_BOTTOMFLOOR,Air,2
 Node,514,RETURN AIR MIXER OUTLET_UNIT2_FRONTROW_BOTTOMFLOOR,Air,2
 Node,515,RETURN AIR MIXER OUTLET_UNIT3_FRONTROW_BOTTOMFLOOR,Air,2
 Node,516,RETURN AIR MIXER OUTLET_UNIT1_BACKROW_BOTTOMFLOOR,Air,2
 Node,517,RETURN AIR MIXER OUTLET_UNIT2_BACKROW_BOTTOMFLOOR,Air,2
 Node,518,RETURN AIR MIXER OUTLET_UNIT3_BACKROW_BOTTOMFLOOR,Air,2
 Node,519,RETURN AIR MIXER OUTLET_UNIT1_FRONTROW_MIDDLEFLOOR,Air,2
 Node,520,RETURN AIR MIXER OUTLET_UNIT2_FRONTROW_MIDDLEFLOOR,Air,2
 Node,521,RETURN AIR MIXER OUTLET_UNIT3_FRONTROW_MIDDLEFLOOR,Air,2
 Node,522,RETURN AIR MIXER OUTLET_UNIT1_BACKROW_MIDDLEFLOOR,Air,2
 Node,523,RETURN AIR MIXER OUTLET_UNIT2_BACKROW_MIDDLEFLOOR,Air,2
 Node,524,RETURN AIR MIXER OUTLET_UNIT3_BACKROW_MIDDLEFLOOR,Air,2
 Node,525,RETURN AIR MIXER OUTLET_UNIT1_FRONTROW_TOPFLOOR,Air,2
 Node,526,RETURN AIR MIXER OUTLET_UNIT2_FRONTROW_TOPFLOOR,Air,2
 Node,527,RETURN AIR MIXER OUTLET_UNIT3_FRONTROW_TOPFLOOR,Air,2
 Node,528,RETURN AIR MIXER OUTLET_UNIT1_BACKROW_TOPFLOOR,Air,2
 Node,529,RETURN AIR MIXER OUTLET_UNIT2_BACKROW_TOPFLOOR,Air,2
 Node,530,RETURN AIR MIXER OUTLET_UNIT3_BACKROW_TOPFLOOR,Air,2
 Node,531,RETURN AIR MIXER OUTLET_UNITHEATEDBSMT,Air,2
 Node,532,OUTDOOR AIR NODE_UNIT1_FRONTROW_BOTTOMFLOOR,Air,2
 Node,533,OUTDOOR AIR NODE_UNIT2_FRONTROW_BOTTOMFLOOR,Air,2
 Node,534,OUTDOOR AIR NODE_UNIT3_FRONTROW_BOTTOMFLOOR,Air,2
 Node,535,OUTDOOR AIR NODE_UNIT1_BACKROW_BOTTOMFLOOR,Air,2
 Node,536,OUTDOOR AIR NODE_UNIT2_BACKROW_BOTTOMFLOOR,Air,2
 Node,537,OUTDOOR AIR NODE_UNIT3_BACKROW_BOTTOMFLOOR,Air,2
 Node,538,OUTDOOR AIR NODE_UNIT1_FRONTROW_MIDDLEFLOOR,Air,2
 Node,539,OUTDOOR AIR NODE_UNIT2_FRONTROW_MIDDLEFLOOR,Air,2
 Node,540,OUTDOOR AIR NODE_UNIT3_FRONTROW_MIDDLEFLOOR,Air,2
 Node,541,OUTDOOR AIR NODE_UNIT1_BACKROW_MIDDLEFLOOR,Air,2
 Node,542,OUTDOOR AIR NODE_UNIT2_BACKROW_MIDDLEFLOOR,Air,2
 Node,543,OUTDOOR AIR NODE_UNIT3_BACKROW_MIDDLEFLOOR,Air,2
 Node,544,OUTDOOR AIR NODE_UNIT1_FRONTROW_TOPFLOOR,Air,2
 Node,545,OUTDOOR AIR NODE_UNIT2_FRONTROW_TOPFLOOR,Air,2
 Node,546,OUTDOOR AIR NODE_UNIT3_FRONTROW_TOPFLOOR,Air,2
 Node,547,OUTDOOR AIR NODE_UNIT1_BACKROW_TOPFLOOR,Air,2
 Node,548,OUTDOOR AIR NODE_UNIT2_BACKROW_TOPFLOOR,Air,2
 Node,549,OUTDOOR AIR NODE_UNIT3_BACKROW_TOPFLOOR,Air,2
 Node,550,OUTDOOR AIR NODE_UNITHEATEDBSMT,Air,2
 Node,551,OUTSIDE AIR INLET NODE_UNIT1_FRONTROW_BOTTOMFLOOR,Air,0
 Node,552,OUTSIDE AIR INLET NODE_UNIT2_FRONTROW_BOTTOMFLOOR,Air,0
 Node,553,OUTSIDE AIR INLET NODE_UNIT3_FRONTROW_BOTTOMFLOOR,Air,0
 Node,554,OUTSIDE AIR INLET NODE_UNIT1_BACKROW_BOTTOMFLOOR,Air,0
 Node,555,OUTSIDE AIR INLET NODE_UNIT2_BACKROW_BOTTOMFLOOR,Air,0
 Node,556,OUTSIDE AIR INLET NODE_UNIT3_BACKROW_BOTTOMFLOOR,Air,0
 Node,557,OUTSIDE AIR INLET NODE_UNIT1_FRONTROW_MIDDLEFLOOR,Air,0
 Node,558,OUTSIDE AIR INLET NODE_UNIT2_FRONTROW_MIDDLEFLOOR,Air,0
 Node,559,OUTSIDE AIR INLET NODE_UNIT3_FRONTROW_MIDDLEFLOOR,Air,0
 Node,560,OUTSIDE AIR INLET NODE_UNIT1_BACKROW_MIDDLEFLOOR,Air,0
 Node,561,OUTSIDE AIR INLET NODE_UNIT2_BACKROW_MIDDLEFLOOR,Air,0
 Node,562,OUTSIDE AIR INLET NODE_UNIT3_BACKROW_MIDDLEFLOOR,Air,0
 Node,563,OUTSIDE AIR INLET NODE_UNIT1_FRONTROW_TOPFLOOR,Air,0
 Node,564,OUTSIDE AIR INLET NODE_UNIT2_FRONTROW_TOPFLOOR,Air,0
 Node,565,OUTSIDE AIR INLET NODE_UNIT3_FRONTROW_TOPFLOOR,Air,0
 Node,566,OUTSIDE AIR INLET NODE_UNIT1_BACKROW_TOPFLOOR,Air,0
 Node,567,OUTSIDE AIR INLET NODE_UNIT2_BACKROW_TOPFLOOR,Air,0
 Node,568,OUTSIDE AIR INLET NODE_UNIT3_BACKROW_TOPFLOOR,Air,0
 Node,569,OUTSIDE AIR INLET NODE_UNITHEATEDBSMT,Air,0
 Node,570,ZONE INLET NODE_UNIT1_FRONTROW_BOTTOMFLOOR ATINLET,Air,1
 Node,571,ZONE INLET NODE_UNIT2_FRONTROW_BOTTOMFLOOR ATINLET,Air,1
 Node,572,ZONE INLET NODE_UNIT3_FRONTROW_BOTTOMFLOOR ATINLET,Air,1
 Node,573,ZONE INLET NODE_UNIT1_BACKROW_BOTTOMFLOOR ATINLET,Air,1
 Node,574,ZONE INLET NODE_UNIT2_BACKROW_BOTTOMFLOOR ATINLET,Air,1
 Node,575,ZONE INLET NODE_UNIT3_BACKROW_BOTTOMFLOOR ATINLET,Air,1
 Node,576,ZONE INLET NODE_UNIT1_FRONTROW_MIDDLEFLOOR ATINLET,Air,1
 Node,577,ZONE INLET NODE_UNIT2_FRONTROW_MIDDLEFLOOR ATINLET,Air,1
 Node,578,ZONE INLET NODE_UNIT3_FRONTROW_MIDDLEFLOOR ATINLET,Air,1
 Node,579,ZONE INLET NODE_UNIT1_BACKROW_MIDDLEFLOOR ATINLET,Air,1
 Node,580,ZONE INLET NODE_UNIT2_BACKROW_MIDDLEFLOOR ATINLET,Air,1
 Node,581,ZONE INLET NODE_UNIT3_BACKROW_MIDDLEFLOOR ATINLET,Air,1
 Node,582,ZONE INLET NODE_UNIT1_FRONTROW_TOPFLOOR ATINLET,Air,1
 Node,583,ZONE INLET NODE_UNIT2_FRONTROW_TOPFLOOR ATINLET,Air,1
 Node,584,ZONE INLET NODE_UNIT3_FRONTROW_TOPFLOOR ATINLET,Air,1
 Node,585,ZONE INLET NODE_UNIT1_BACKROW_TOPFLOOR ATINLET,Air,1
 Node,586,ZONE INLET NODE_UNIT2_BACKROW_TOPFLOOR ATINLET,Air,1
 Node,587,ZONE INLET NODE_UNIT3_BACKROW_TOPFLOOR ATINLET,Air,1
 Node,588,ZONE INLET NODE_UNITHEATEDBSMT ATINLET,Air,1
 Node,589,OA FAN INLET NODE_UNIT1_FRONTROW_BOTTOMFLOOR,Air,1
 Node,590,ERVEXHAUSTNODE_UNIT1_FRONTROW_BOTTOMFLOOR,Air,1
 Node,591,OA FAN INLET NODE_UNIT2_FRONTROW_BOTTOMFLOOR,Air,1
 Node,592,ERVEXHAUSTNODE_UNIT2_FRONTROW_BOTTOMFLOOR,Air,1
 Node,593,OA FAN INLET NODE_UNIT3_FRONTROW_BOTTOMFLOOR,Air,1
 Node,594,ERVEXHAUSTNODE_UNIT3_FRONTROW_BOTTOMFLOOR,Air,1
 Node,595,OA FAN INLET NODE_UNIT1_BACKROW_BOTTOMFLOOR,Air,1
 Node,596,ERVEXHAUSTNODE_UNIT1_BACKROW_BOTTOMFLOOR,Air,1
 Node,597,OA FAN INLET NODE_UNIT2_BACKROW_BOTTOMFLOOR,Air,1
 Node,598,ERVEXHAUSTNODE_UNIT2_BACKROW_BOTTOMFLOOR,Air,1
 Node,599,OA FAN INLET NODE_UNIT3_BACKROW_BOTTOMFLOOR,Air,1
 Node,600,ERVEXHAUSTNODE_UNIT3_BACKROW_BOTTOMFLOOR,Air,1
 Node,601,OA FAN INLET NODE_UNIT1_FRONTROW_MIDDLEFLOOR,Air,1
 Node,602,ERVEXHAUSTNODE_UNIT1_FRONTROW_MIDDLEFLOOR,Air,1
 Node,603,OA FAN INLET NODE_UNIT2_FRONTROW_MIDDLEFLOOR,Air,1
 Node,604,ERVEXHAUSTNODE_UNIT2_FRONTROW_MIDDLEFLOOR,Air,1
 Node,605,OA FAN INLET NODE_UNIT3_FRONTROW_MIDDLEFLOOR,Air,1
 Node,606,ERVEXHAUSTNODE_UNIT3_FRONTROW_MIDDLEFLOOR,Air,1
 Node,607,OA FAN INLET NODE_UNIT1_BACKROW_MIDDLEFLOOR,Air,1
 Node,608,ERVEXHAUSTNODE_UNIT1_BACKROW_MIDDLEFLOOR,Air,1
 Node,609,OA FAN INLET NODE_UNIT2_BACKROW_MIDDLEFLOOR,Air,1
 Node,610,ERVEXHAUSTNODE_UNIT2_BACKROW_MIDDLEFLOOR,Air,1
 Node,611,OA FAN INLET NODE_UNIT3_BACKROW_MIDDLEFLOOR,Air,1
 Node,612,ERVEXHAUSTNODE_UNIT3_BACKROW_MIDDLEFLOOR,Air,1
 Node,613,OA FAN INLET NODE_UNIT1_FRONTROW_TOPFLOOR,Air,1
 Node,614,ERVEXHAUSTNODE_UNIT1_FRONTROW_TOPFLOOR,Air,1
 Node,615,OA FAN INLET NODE_UNIT2_FRONTROW_TOPFLOOR,Air,1
 Node,616,ERVEXHAUSTNODE_UNIT2_FRONTROW_TOPFLOOR,Air,1
 Node,617,OA FAN INLET NODE_UNIT3_FRONTROW_TOPFLOOR,Air,1
 Node,618,ERVEXHAUSTNODE_UNIT3_FRONTROW_TOPFLOOR,Air,1
 Node,619,OA FAN INLET NODE_UNIT1_BACKROW_TOPFLOOR,Air,1
 Node,620,ERVEXHAUSTNODE_UNIT1_BACKROW_TOPFLOOR,Air,1
 Node,621,OA FAN INLET NODE_UNIT2_BACKROW_TOPFLOOR,Air,1
 Node,622,ERVEXHAUSTNODE_UNIT2_BACKROW_TOPFLOOR,Air,1
 Node,623,OA FAN INLET NODE_UNIT3_BACKROW_TOPFLOOR,Air,1
 Node,624,ERVEXHAUSTNODE_UNIT3_BACKROW_TOPFLOOR,Air,1
 Node,625,OA FAN INLET NODE_UNITHEATEDBSMT,Air,1
 Node,626,ERVEXHAUSTNODE_UNITHEATEDBSMT,Air,1
 Node,627,COOLING COIL AIR INLET NODE_UNIT1_FRONTROW_BOTTOMFLOOR,Air,1
 Node,628,EXHAUST OUTLET NODE_UNIT1_FRONTROW_BOTTOMFLOOR,Air,1
 Node,629,COOLING COIL AIR INLET NODE_UNIT2_FRONTROW_BOTTOMFLOOR,Air,1
 Node,630,EXHAUST OUTLET NODE_UNIT2_FRONTROW_BOTTOMFLOOR,Air,1
 Node,631,COOLING COIL AIR INLET NODE_UNIT3_FRONTROW_BOTTOMFLOOR,Air,1
 Node,632,EXHAUST OUTLET NODE_UNIT3_FRONTROW_BOTTOMFLOOR,Air,1
 Node,633,COOLING COIL AIR INLET NODE_UNIT1_BACKROW_BOTTOMFLOOR,Air,1
 Node,634,EXHAUST OUTLET NODE_UNIT1_BACKROW_BOTTOMFLOOR,Air,1
 Node,635,COOLING COIL AIR INLET NODE_UNIT2_BACKROW_BOTTOMFLOOR,Air,1
 Node,636,EXHAUST OUTLET NODE_UNIT2_BACKROW_BOTTOMFLOOR,Air,1
 Node,637,COOLING COIL AIR INLET NODE_UNIT3_BACKROW_BOTTOMFLOOR,Air,1
 Node,638,EXHAUST OUTLET NODE_UNIT3_BACKROW_BOTTOMFLOOR,Air,1
 Node,639,COOLING COIL AIR INLET NODE_UNIT1_FRONTROW_MIDDLEFLOOR,Air,1
 Node,640,EXHAUST OUTLET NODE_UNIT1_FRONTROW_MIDDLEFLOOR,Air,1
 Node,641,COOLING COIL AIR INLET NODE_UNIT2_FRONTROW_MIDDLEFLOOR,Air,1
 Node,642,EXHAUST OUTLET NODE_UNIT2_FRONTROW_MIDDLEFLOOR,Air,1
 Node,643,COOLING COIL AIR INLET NODE_UNIT3_FRONTROW_MIDDLEFLOOR,Air,1
 Node,644,EXHAUST OUTLET NODE_UNIT3_FRONTROW_MIDDLEFLOOR,Air,1
 Node,645,COOLING COIL AIR INLET NODE_UNIT1_BACKROW_MIDDLEFLOOR,Air,1
 Node,646,EXHAUST OUTLET NODE_UNIT1_BACKROW_MIDDLEFLOOR,Air,1
 Node,647,COOLING COIL AIR INLET NODE_UNIT2_BACKROW_MIDDLEFLOOR,Air,1
 Node,648,EXHAUST OUTLET NODE_UNIT2_BACKROW_MIDDLEFLOOR,Air,1
 Node,649,COOLING COIL AIR INLET NODE_UNIT3_BACKROW_MIDDLEFLOOR,Air,1
 Node,650,EXHAUST OUTLET NODE_UNIT3_BACKROW_MIDDLEFLOOR,Air,1
 Node,651,COOLING COIL AIR INLET NODE_UNIT1_FRONTROW_TOPFLOOR,Air,1
 Node,652,EXHAUST OUTLET NODE_UNIT1_FRONTROW_TOPFLOOR,Air,1
 Node,653,COOLING COIL AIR INLET NODE_UNIT2_FRONTROW_TOPFLOOR,Air,1
 Node,654,EXHAUST OUTLET NODE_UNIT2_FRONTROW_TOPFLOOR,Air,1
 Node,655,COOLING COIL AIR INLET NODE_UNIT3_FRONTROW_TOPFLOOR,Air,1
 Node,656,EXHAUST OUTLET NODE_UNIT3_FRONTROW_TOPFLOOR,Air,1
 Node,657,COOLING COIL AIR INLET NODE_UNIT1_BACKROW_TOPFLOOR,Air,1
 Node,658,EXHAUST OUTLET NODE_UNIT1_BACKROW_TOPFLOOR,Air,1
 Node,659,COOLING COIL AIR INLET NODE_UNIT2_BACKROW_TOPFLOOR,Air,1
 Node,660,EXHAUST OUTLET NODE_UNIT2_BACKROW_TOPFLOOR,Air,1
 Node,661,COOLING COIL AIR INLET NODE_UNIT3_BACKROW_TOPFLOOR,Air,1
 Node,662,EXHAUST OUTLET NODE_UNIT3_BACKROW_TOPFLOOR,Air,1
 Node,663,COOLING COIL AIR INLET NODE_UNITHEATEDBSMT,Air,1
 Node,664,EXHAUST OUTLET NODE_UNITHEATEDBSMT,Air,1
 Node,665,HEATING COIL AIR INLET NODE_UNIT1_FRONTROW_BOTTOMFLOOR,Air,1
 Node,666,HEATING COIL AIR INLET NODE_UNIT2_FRONTROW_BOTTOMFLOOR,Air,1
 Node,667,HEATING COIL AIR INLET NODE_UNIT3_FRONTROW_BOTTOMFLOOR,Air,1
 Node,668,HEATING COIL AIR INLET NODE_UNIT1_BACKROW_BOTTOMFLOOR,Air,1
 Node,669,HEATING COIL AIR INLET NODE_UNIT2_BACKROW_BOTTOMFLOOR,Air,1
 Node,670,HEATING COIL AIR INLET NODE_UNIT3_BACKROW_BOTTOMFLOOR,Air,1
 Node,671,HEATING COIL AIR INLET NODE_UNIT1_FRONTROW_MIDDLEFLOOR,Air,1
 Node,672,HEATING COIL AIR INLET NODE_UNIT2_FRONTROW_MIDDLEFLOOR,Air,1
 Node,673,HEATING COIL AIR INLET NODE_UNIT3_FRONTROW_MIDDLEFLOOR,Air,1
 Node,674,HEATING COIL AIR INLET NODE_UNIT1_BACKROW_MIDDLEFLOOR,Air,1
 Node,675,HEATING COIL AIR INLET NODE_UNIT2_BACKROW_MIDDLEFLOOR,Air,1
 Node,676,HEATING COIL AIR INLET NODE_UNIT3_BACKROW_MIDDLEFLOOR,Air,1
 Node,677,HEATING COIL AIR INLET NODE_UNIT1_FRONTROW_TOPFLOOR,Air,1
 Node,678,HEATING COIL AIR INLET NODE_UNIT2_FRONTROW_TOPFLOOR,Air,1
 Node,679,HEATING COIL AIR INLET NODE_UNIT3_FRONTROW_TOPFLOOR,Air,1
 Node,680,HEATING COIL AIR INLET NODE_UNIT1_BACKROW_TOPFLOOR,Air,1
 Node,681,HEATING COIL AIR INLET NODE_UNIT2_BACKROW_TOPFLOOR,Air,1
 Node,682,HEATING COIL AIR INLET NODE_UNIT3_BACKROW_TOPFLOOR,Air,1
 Node,683,HEATING COIL AIR INLET NODE_UNITHEATEDBSMT,Air,1
! ===============================================================
! Suspicious nodes have 0 references.  It is normal for some nodes, however.
! Listing nodes with 0 references (culled from previous list):
! <Suspicious Node>,<NodeNumber>,<Node Name>,<Node Fluid Type>,<# Times Node Referenced After Definition>
 Suspicious Node,437,ZONE NODE_UNIT1_FRONTROW_BOTTOMFLOOR,Air,0
 Suspicious Node,440,ZONE NODE_UNIT2_FRONTROW_BOTTOMFLOOR,Air,0
 Suspicious Node,443,ZONE NODE_UNIT3_FRONTROW_BOTTOMFLOOR,Air,0
 Suspicious Node,446,ZONE NODE_UNIT1_BACKROW_BOTTOMFLOOR,Air,0
 Suspicious Node,449,ZONE NODE_UNIT2_BACKROW_BOTTOMFLOOR,Air,0
 Suspicious Node,452,ZONE NODE_UNIT3_BACKROW_BOTTOMFLOOR,Air,0
 Suspicious Node,455,ZONE NODE_UNIT1_FRONTROW_MIDDLEFLOOR,Air,0
 Suspicious Node,458,ZONE NODE_UNIT2_FRONTROW_MIDDLEFLOOR,Air,0
 Suspicious Node,461,ZONE NODE_UNIT3_FRONTROW_MIDDLEFLOOR,Air,0
 Suspicious Node,464,ZONE NODE_UNIT1_BACKROW_MIDDLEFLOOR,Air,0
 Suspicious Node,467,ZONE NODE_UNIT2_BACKROW_MIDDLEFLOOR,Air,0
 Suspicious Node,470,ZONE NODE_UNIT3_BACKROW_MIDDLEFLOOR,Air,0
 Suspicious Node,473,ZONE NODE_UNIT1_FRONTROW_TOPFLOOR,Air,0
 Suspicious Node,476,ZONE NODE_UNIT2_FRONTROW_TOPFLOOR,Air,0
 Suspicious Node,479,ZONE NODE_UNIT3_FRONTROW_TOPFLOOR,Air,0
 Suspicious Node,482,ZONE NODE_UNIT1_BACKROW_TOPFLOOR,Air,0
 Suspicious Node,485,ZONE NODE_UNIT2_BACKROW_TOPFLOOR,Air,0
 Suspicious Node,488,ZONE NODE_UNIT3_BACKROW_TOPFLOOR,Air,0
 Suspicious Node,491,ZONE NODE_UNITHEATEDBSMT,Air,0
 Suspicious Node,551,OUTSIDE AIR INLET NODE_UNIT1_FRONTROW_BOTTOMFLOOR,Air,0
 Suspicious Node,552,OUTSIDE AIR INLET NODE_UNIT2_FRONTROW_BOTTOMFLOOR,Air,0
 Suspicious Node,553,OUTSIDE AIR INLET NODE_UNIT3_FRONTROW_BOTTOMFLOOR,Air,0
 Suspicious Node,554,OUTSIDE AIR INLET NODE_UNIT1_BACKROW_BOTTOMFLOOR,Air,0
 Suspicious Node,555,OUTSIDE AIR INLET NODE_UNIT2_BACKROW_BOTTOMFLOOR,Air,0
 Suspicious Node,556,OUTSIDE AIR INLET NODE_UNIT3_BACKROW_BOTTOMFLOOR,Air,0
 Suspicious Node,557,OUTSIDE AIR INLET NODE_UNIT1_FRONTROW_MIDDLEFLOOR,Air,0
 Suspicious Node,558,OUTSIDE AIR INLET NODE_UNIT2_FRONTROW_MIDDLEFLOOR,Air,0
 Suspicious Node,559,OUTSIDE AIR INLET NODE_UNIT3_FRONTROW_MIDDLEFLOOR,Air,0
 Suspicious Node,560,OUTSIDE AIR INLET NODE_UNIT1_BACKROW_MIDDLEFLOOR,Air,0
 Suspicious Node,561,OUTSIDE AIR INLET NODE_UNIT2_BACKROW_MIDDLEFLOOR,Air,0
 Suspicious Node,562,OUTSIDE AIR INLET NODE_UNIT3_BACKROW_MIDDLEFLOOR,Air,0
 Suspicious Node,563,OUTSIDE AIR INLET NODE_UNIT1_FRONTROW_TOPFLOOR,Air,0
 Suspicious Node,564,OUTSIDE AIR INLET NODE_UNIT2_FRONTROW_TOPFLOOR,Air,0
 Suspicious Node,565,OUTSIDE AIR INLET NODE_UNIT3_FRONTROW_TOPFLOOR,Air,0
 Suspicious Node,566,OUTSIDE AIR INLET NODE_UNIT1_BACKROW_TOPFLOOR,Air,0
 Suspicious Node,567,OUTSIDE AIR INLET NODE_UNIT2_BACKROW_TOPFLOOR,Air,0
 Suspicious Node,568,OUTSIDE AIR INLET NODE_UNIT3_BACKROW_TOPFLOOR,Air,0
 Suspicious Node,569,OUTSIDE AIR INLET NODE_UNITHEATEDBSMT,Air,0
! ===============================================================
! <#Branch Lists>,<Number of Branch Lists>
 #Branch Lists,55
! <Branch List>,<Branch List Count>,<Branch List Name>,<Loop Name>,<Loop Type>,<Number of Branches>
! <Branch>,<Branch Count>,<Branch Name>,<Loop Name>,<Loop Type>,<Branch Inlet Node Name>,<Branch Outlet Node Name>
 Branch List,1,AIR LOOP BRANCHES_UNIT1_FRONTROW_BOTTOMFLOOR,CENTRAL SYSTEM_UNIT1_FRONTROW_BOTTOMFLOOR,Air,1
   Branch,1,AIR LOOP MAIN BRANCH_UNIT1_FRONTROW_BOTTOMFLOOR,CENTRAL SYSTEM_UNIT1_FRONTROW_BOTTOMFLOOR,Air,AIR LOOP INLET NODE_UNIT1_FRONTROW_BOTTOMFLOOR,AIR LOOP OUTLET NODE_UNIT1_FRONTROW_BOTTOMFLOOR
 Branch List,2,AIR LOOP BRANCHES_UNIT2_FRONTROW_BOTTOMFLOOR,CENTRAL SYSTEM_UNIT2_FRONTROW_BOTTOMFLOOR,Air,1
   Branch,1,AIR LOOP MAIN BRANCH_UNIT2_FRONTROW_BOTTOMFLOOR,CENTRAL SYSTEM_UNIT2_FRONTROW_BOTTOMFLOOR,Air,AIR LOOP INLET NODE_UNIT2_FRONTROW_BOTTOMFLOOR,AIR LOOP OUTLET NODE_UNIT2_FRONTROW_BOTTOMFLOOR
 Branch List,3,AIR LOOP BRANCHES_UNIT3_FRONTROW_BOTTOMFLOOR,CENTRAL SYSTEM_UNIT3_FRONTROW_BOTTOMFLOOR,Air,1
   Branch,1,AIR LOOP MAIN BRANCH_UNIT3_FRONTROW_BOTTOMFLOOR,CENTRAL SYSTEM_UNIT3_FRONTROW_BOTTOMFLOOR,Air,AIR LOOP INLET NODE_UNIT3_FRONTROW_BOTTOMFLOOR,AIR LOOP OUTLET NODE_UNIT3_FRONTROW_BOTTOMFLOOR
 Branch List,4,AIR LOOP BRANCHES_UNIT1_BACKROW_BOTTOMFLOOR,CENTRAL SYSTEM_UNIT1_BACKROW_BOTTOMFLOOR,Air,1
   Branch,1,AIR LOOP MAIN BRANCH_UNIT1_BACKROW_BOTTOMFLOOR,CENTRAL SYSTEM_UNIT1_BACKROW_BOTTOMFLOOR,Air,AIR LOOP INLET NODE_UNIT1_BACKROW_BOTTOMFLOOR,AIR LOOP OUTLET NODE_UNIT1_BACKROW_BOTTOMFLOOR
 Branch List,5,AIR LOOP BRANCHES_UNIT2_BACKROW_BOTTOMFLOOR,CENTRAL SYSTEM_UNIT2_BACKROW_BOTTOMFLOOR,Air,1
   Branch,1,AIR LOOP MAIN BRANCH_UNIT2_BACKROW_BOTTOMFLOOR,CENTRAL SYSTEM_UNIT2_BACKROW_BOTTOMFLOOR,Air,AIR LOOP INLET NODE_UNIT2_BACKROW_BOTTOMFLOOR,AIR LOOP OUTLET NODE_UNIT2_BACKROW_BOTTOMFLOOR
 Branch List,6,AIR LOOP BRANCHES_UNIT3_BACKROW_BOTTOMFLOOR,CENTRAL SYSTEM_UNIT3_BACKROW_BOTTOMFLOOR,Air,1
   Branch,1,AIR LOOP MAIN BRANCH_UNIT3_BACKROW_BOTTOMFLOOR,CENTRAL SYSTEM_UNIT3_BACKROW_BOTTOMFLOOR,Air,AIR LOOP INLET NODE_UNIT3_BACKROW_BOTTOMFLOOR,AIR LOOP OUTLET NODE_UNIT3_BACKROW_BOTTOMFLOOR
 Branch List,7,AIR LOOP BRANCHES_UNIT1_FRONTROW_MIDDLEFLOOR,CENTRAL SYSTEM_UNIT1_FRONTROW_MIDDLEFLOOR,Air,1
   Branch,1,AIR LOOP MAIN BRANCH_UNIT1_FRONTROW_MIDDLEFLOOR,CENTRAL SYSTEM_UNIT1_FRONTROW_MIDDLEFLOOR,Air,AIR LOOP INLET NODE_UNIT1_FRONTROW_MIDDLEFLOOR,AIR LOOP OUTLET NODE_UNIT1_FRONTROW_MIDDLEFLOOR
 Branch List,8,AIR LOOP BRANCHES_UNIT2_FRONTROW_MIDDLEFLOOR,CENTRAL SYSTEM_UNIT2_FRONTROW_MIDDLEFLOOR,Air,1
   Branch,1,AIR LOOP MAIN BRANCH_UNIT2_FRONTROW_MIDDLEFLOOR,CENTRAL SYSTEM_UNIT2_FRONTROW_MIDDLEFLOOR,Air,AIR LOOP INLET NODE_UNIT2_FRONTROW_MIDDLEFLOOR,AIR LOOP OUTLET NODE_UNIT2_FRONTROW_MIDDLEFLOOR
 Branch List,9,AIR LOOP BRANCHES_UNIT3_FRONTROW_MIDDLEFLOOR,CENTRAL SYSTEM_UNIT3_FRONTROW_MIDDLEFLOOR,Air,1
   Branch,1,AIR LOOP MAIN BRANCH_UNIT3_FRONTROW_MIDDLEFLOOR,CENTRAL SYSTEM_UNIT3_FRONTROW_MIDDLEFLOOR,Air,AIR LOOP INLET NODE_UNIT3_FRONTROW_MIDDLEFLOOR,AIR LOOP OUTLET NODE_UNIT3_FRONTROW_MIDDLEFLOOR
 Branch List,10,AIR LOOP BRANCHES_UNIT1_BACKROW_MIDDLEFLOOR,CENTRAL SYSTEM_UNIT1_BACKROW_MIDDLEFLOOR,Air,1
   Branch,1,AIR LOOP MAIN BRANCH_UNIT1_BACKROW_MIDDLEFLOOR,CENTRAL SYSTEM_UNIT1_BACKROW_MIDDLEFLOOR,Air,AIR LOOP INLET NODE_UNIT1_BACKROW_MIDDLEFLOOR,AIR LOOP OUTLET NODE_UNIT1_BACKROW_MIDDLEFLOOR
 Branch List,11,AIR LOOP BRANCHES_UNIT2_BACKROW_MIDDLEFLOOR,CENTRAL SYSTEM_UNIT2_BACKROW_MIDDLEFLOOR,Air,1
   Branch,1,AIR LOOP MAIN BRANCH_UNIT2_BACKROW_MIDDLEFLOOR,CENTRAL SYSTEM_UNIT2_BACKROW_MIDDLEFLOOR,Air,AIR LOOP INLET NODE_UNIT2_BACKROW_MIDDLEFLOOR,AIR LOOP OUTLET NODE_UNIT2_BACKROW_MIDDLEFLOOR
 Branch List,12,AIR LOOP BRANCHES_UNIT3_BACKROW_MIDDLEFLOOR,CENTRAL SYSTEM_UNIT3_BACKROW_MIDDLEFLOOR,Air,1
   Branch,1,AIR LOOP MAIN BRANCH_UNIT3_BACKROW_MIDDLEFLOOR,CENTRAL SYSTEM_UNIT3_BACKROW_MIDDLEFLOOR,Air,AIR LOOP INLET NODE_UNIT3_BACKROW_MIDDLEFLOOR,AIR LOOP OUTLET NODE_UNIT3_BACKROW_MIDDLEFLOOR
 Branch List,13,AIR LOOP BRANCHES_UNIT1_FRONTROW_TOPFLOOR,CENTRAL SYSTEM_UNIT1_FRONTROW_TOPFLOOR,Air,1
   Branch,1,AIR LOOP MAIN BRANCH_UNIT1_FRONTROW_TOPFLOOR,CENTRAL SYSTEM_UNIT1_FRONTROW_TOPFLOOR,Air,AIR LOOP INLET NODE_UNIT1_FRONTROW_TOPFLOOR,AIR LOOP OUTLET NODE_UNIT1_FRONTROW_TOPFLOOR
 Branch List,14,AIR LOOP BRANCHES_UNIT2_FRONTROW_TOPFLOOR,CENTRAL SYSTEM_UNIT2_FRONTROW_TOPFLOOR,Air,1
   Branch,1,AIR LOOP MAIN BRANCH_UNIT2_FRONTROW_TOPFLOOR,CENTRAL SYSTEM_UNIT2_FRONTROW_TOPFLOOR,Air,AIR LOOP INLET NODE_UNIT2_FRONTROW_TOPFLOOR,AIR LOOP OUTLET NODE_UNIT2_FRONTROW_TOPFLOOR
 Branch List,15,AIR LOOP BRANCHES_UNIT3_FRONTROW_TOPFLOOR,CENTRAL SYSTEM_UNIT3_FRONTROW_TOPFLOOR,Air,1
   Branch,1,AIR LOOP MAIN BRANCH_UNIT3_FRONTROW_TOPFLOOR,CENTRAL SYSTEM_UNIT3_FRONTROW_TOPFLOOR,Air,AIR LOOP INLET NODE_UNIT3_FRONTROW_TOPFLOOR,AIR LOOP OUTLET NODE_UNIT3_FRONTROW_TOPFLOOR
 Branch List,16,AIR LOOP BRANCHES_UNIT1_BACKROW_TOPFLOOR,CENTRAL SYSTEM_UNIT1_BACKROW_TOPFLOOR,Air,1
   Branch,1,AIR LOOP MAIN BRANCH_UNIT1_BACKROW_TOPFLOOR,CENTRAL SYSTEM_UNIT1_BACKROW_TOPFLOOR,Air,AIR LOOP INLET NODE_UNIT1_BACKROW_TOPFLOOR,AIR LOOP OUTLET NODE_UNIT1_BACKROW_TOPFLOOR
 Branch List,17,AIR LOOP BRANCHES_UNIT2_BACKROW_TOPFLOOR,CENTRAL SYSTEM_UNIT2_BACKROW_TOPFLOOR,Air,1
   Branch,1,AIR LOOP MAIN BRANCH_UNIT2_BACKROW_TOPFLOOR,CENTRAL SYSTEM_UNIT2_BACKROW_TOPFLOOR,Air,AIR LOOP INLET NODE_UNIT2_BACKROW_TOPFLOOR,AIR LOOP OUTLET NODE_UNIT2_BACKROW_TOPFLOOR
 Branch List,18,AIR LOOP BRANCHES_UNIT3_BACKROW_TOPFLOOR,CENTRAL SYSTEM_UNIT3_BACKROW_TOPFLOOR,Air,1
   Branch,1,AIR LOOP MAIN BRANCH_UNIT3_BACKROW_TOPFLOOR,CENTRAL SYSTEM_UNIT3_BACKROW_TOPFLOOR,Air,AIR LOOP INLET NODE_UNIT3_BACKROW_TOPFLOOR,AIR LOOP OUTLET NODE_UNIT3_BACKROW_TOPFLOOR
 Branch List,19,AIR LOOP BRANCHES_UNITHEATEDBSMT,CENTRAL SYSTEM_UNITHEATEDBSMT,Air,1
   Branch,1,AIR LOOP MAIN BRANCH_UNITHEATEDBSMT,CENTRAL SYSTEM_UNITHEATEDBSMT,Air,AIR LOOP INLET NODE_UNITHEATEDBSMT,AIR LOOP OUTLET NODE_UNITHEATEDBSMT
 Branch List,20,DHW SUPPLY BRANCHES_UNIT1_FRONTROW_BOTTOMFLOOR,DHW LOOP_UNIT1_FRONTROW_BOTTOMFLOOR,Plant Supply,3
   Branch,1,MAINS INLET BRANCH_UNIT1_FRONTROW_BOTTOMFLOOR,DHW LOOP_UNIT1_FRONTROW_BOTTOMFLOOR,Plant Supply,MAINS INLET NODE_UNIT1_FRONTROW_BOTTOMFLOOR,MAINS PRESSURE OUTLET NODE_UNIT1_FRONTROW_BOTTOMFLOOR
   Branch,2,WATER HEATER BRANCH_UNIT1_FRONTROW_BOTTOMFLOOR,DHW LOOP_UNIT1_FRONTROW_BOTTOMFLOOR,Plant Supply,WATER HEATER USE INLET NODE_UNIT1_FRONTROW_BOTTOMFLOOR,WATER HEATER USE OUTLET NODE_UNIT1_FRONTROW_BOTTOMFLOOR
   Branch,3,DHW SUPPLY OUTLET BRANCH_UNIT1_FRONTROW_BOTTOMFLOOR,DHW LOOP_UNIT1_FRONTROW_BOTTOMFLOOR,Plant Supply,DHW SUPPLY OUTLET PIPE INLET NODE_UNIT1_FRONTROW_BOTTOMFLOOR,DHW SUPPLY OUTLET NODE_UNIT1_FRONTROW_BOTTOMFLOOR
 Branch List,21,DHW DEMAND BRANCHES_UNIT1_FRONTROW_BOTTOMFLOOR,DHW LOOP_UNIT1_FRONTROW_BOTTOMFLOOR,Plant Demand,7
   Branch,1,DHW DEMAND INLET BRANCH_UNIT1_FRONTROW_BOTTOMFLOOR,DHW LOOP_UNIT1_FRONTROW_BOTTOMFLOOR,Plant Demand,DHW DEMAND INLET NODE_UNIT1_FRONTROW_BOTTOMFLOOR,DHW DEMAND INLET PIPE OUTLET NODE_UNIT1_FRONTROW_BOTTOMFLOOR
   Branch,2,WATER SINK BRANCH_UNIT1_FRONTROW_BOTTOMFLOOR,DHW LOOP_UNIT1_FRONTROW_BOTTOMFLOOR,Plant Demand,WATER SINK INLET NODE_UNIT1_FRONTROW_BOTTOMFLOOR,WATER SINK OUTLET NODE_UNIT1_FRONTROW_BOTTOMFLOOR
   Branch,3,WATER SHOWER BRANCH_UNIT1_FRONTROW_BOTTOMFLOOR,DHW LOOP_UNIT1_FRONTROW_BOTTOMFLOOR,Plant Demand,WATER SHOWER INLET NODE_UNIT1_FRONTROW_BOTTOMFLOOR,WATER SHOWER OUTLET NODE_UNIT1_FRONTROW_BOTTOMFLOOR
   Branch,4,WATER CLOTHESWASHER BRANCH_UNIT1_FRONTROW_BOTTOMFLOOR,DHW LOOP_UNIT1_FRONTROW_BOTTOMFLOOR,Plant Demand,WATER CLOTHESWASHER INLET NODE_UNIT1_FRONTROW_BOTTOMFLOOR,WATER CLOTHESWASHER OUTLET NODE_UNIT1_FRONTROW_BOTTOMFLOOR
   Branch,5,WATER DISHWASHER BRANCH_UNIT1_FRONTROW_BOTTOMFLOOR,DHW LOOP_UNIT1_FRONTROW_BOTTOMFLOOR,Plant Demand,WATER DISHWASHER INLET NODE_UNIT1_FRONTROW_BOTTOMFLOOR,WATER DISHWASHER OUTLET NODE_UNIT1_FRONTROW_BOTTOMFLOOR
   Branch,6,WATER BATH BRANCH_UNIT1_FRONTROW_BOTTOMFLOOR,DHW LOOP_UNIT1_FRONTROW_BOTTOMFLOOR,Plant Demand,WATER BATH INLET NODE_UNIT1_FRONTROW_BOTTOMFLOOR,WATER BATH OUTLET NODE_UNIT1_FRONTROW_BOTTOMFLOOR
   Branch,7,MAINS MAKEUP BRANCH_UNIT1_FRONTROW_BOTTOMFLOOR,DHW LOOP_UNIT1_FRONTROW_BOTTOMFLOOR,Plant Demand,MAINS MAKEUP PIPE INLET NODE_UNIT1_FRONTROW_BOTTOMFLOOR,MAINS MAKEUP NODE_UNIT1_FRONTROW_BOTTOMFLOOR
 Branch List,22,DHW SUPPLY BRANCHES_UNIT2_FRONTROW_BOTTOMFLOOR,DHW LOOP_UNIT2_FRONTROW_BOTTOMFLOOR,Plant Supply,3
   Branch,1,MAINS INLET BRANCH_UNIT2_FRONTROW_BOTTOMFLOOR,DHW LOOP_UNIT2_FRONTROW_BOTTOMFLOOR,Plant Supply,MAINS INLET NODE_UNIT2_FRONTROW_BOTTOMFLOOR,MAINS PRESSURE OUTLET NODE_UNIT2_FRONTROW_BOTTOMFLOOR
   Branch,2,WATER HEATER BRANCH_UNIT2_FRONTROW_BOTTOMFLOOR,DHW LOOP_UNIT2_FRONTROW_BOTTOMFLOOR,Plant Supply,WATER HEATER USE INLET NODE_UNIT2_FRONTROW_BOTTOMFLOOR,WATER HEATER USE OUTLET NODE_UNIT2_FRONTROW_BOTTOMFLOOR
   Branch,3,DHW SUPPLY OUTLET BRANCH_UNIT2_FRONTROW_BOTTOMFLOOR,DHW LOOP_UNIT2_FRONTROW_BOTTOMFLOOR,Plant Supply,DHW SUPPLY OUTLET PIPE INLET NODE_UNIT2_FRONTROW_BOTTOMFLOOR,DHW SUPPLY OUTLET NODE_UNIT2_FRONTROW_BOTTOMFLOOR
 Branch List,23,DHW DEMAND BRANCHES_UNIT2_FRONTROW_BOTTOMFLOOR,DHW LOOP_UNIT2_FRONTROW_BOTTOMFLOOR,Plant Demand,7
   Branch,1,DHW DEMAND INLET BRANCH_UNIT2_FRONTROW_BOTTOMFLOOR,DHW LOOP_UNIT2_FRONTROW_BOTTOMFLOOR,Plant Demand,DHW DEMAND INLET NODE_UNIT2_FRONTROW_BOTTOMFLOOR,DHW DEMAND INLET PIPE OUTLET NODE_UNIT2_FRONTROW_BOTTOMFLOOR
   Branch,2,WATER SINK BRANCH_UNIT2_FRONTROW_BOTTOMFLOOR,DHW LOOP_UNIT2_FRONTROW_BOTTOMFLOOR,Plant Demand,WATER SINK INLET NODE_UNIT2_FRONTROW_BOTTOMFLOOR,WATER SINK OUTLET NODE_UNIT2_FRONTROW_BOTTOMFLOOR
   Branch,3,WATER SHOWER BRANCH_UNIT2_FRONTROW_BOTTOMFLOOR,DHW LOOP_UNIT2_FRONTROW_BOTTOMFLOOR,Plant Demand,WATER SHOWER INLET NODE_UNIT2_FRONTROW_BOTTOMFLOOR,WATER SHOWER OUTLET NODE_UNIT2_FRONTROW_BOTTOMFLOOR
   Branch,4,WATER CLOTHESWASHER BRANCH_UNIT2_FRONTROW_BOTTOMFLOOR,DHW LOOP_UNIT2_FRONTROW_BOTTOMFLOOR,Plant Demand,WATER CLOTHESWASHER INLET NODE_UNIT2_FRONTROW_BOTTOMFLOOR,WATER CLOTHESWASHER OUTLET NODE_UNIT2_FRONTROW_BOTTOMFLOOR
   Branch,5,WATER DISHWASHER BRANCH_UNIT2_FRONTROW_BOTTOMFLOOR,DHW LOOP_UNIT2_FRONTROW_BOTTOMFLOOR,Plant Demand,WATER DISHWASHER INLET NODE_UNIT2_FRONTROW_BOTTOMFLOOR,WATER DISHWASHER OUTLET NODE_UNIT2_FRONTROW_BOTTOMFLOOR
   Branch,6,WATER BATH BRANCH_UNIT2_FRONTROW_BOTTOMFLOOR,DHW LOOP_UNIT2_FRONTROW_BOTTOMFLOOR,Plant Demand,WATER BATH INLET NODE_UNIT2_FRONTROW_BOTTOMFLOOR,WATER BATH OUTLET NODE_UNIT2_FRONTROW_BOTTOMFLOOR
   Branch,7,MAINS MAKEUP BRANCH_UNIT2_FRONTROW_BOTTOMFLOOR,DHW LOOP_UNIT2_FRONTROW_BOTTOMFLOOR,Plant Demand,MAINS MAKEUP PIPE INLET NODE_UNIT2_FRONTROW_BOTTOMFLOOR,MAINS MAKEUP NODE_UNIT2_FRONTROW_BOTTOMFLOOR
 Branch List,24,DHW SUPPLY BRANCHES_UNIT3_FRONTROW_BOTTOMFLOOR,DHW LOOP_UNIT3_FRONTROW_BOTTOMFLOOR,Plant Supply,3
   Branch,1,MAINS INLET BRANCH_UNIT3_FRONTROW_BOTTOMFLOOR,DHW LOOP_UNIT3_FRONTROW_BOTTOMFLOOR,Plant Supply,MAINS INLET NODE_UNIT3_FRONTROW_BOTTOMFLOOR,MAINS PRESSURE OUTLET NODE_UNIT3_FRONTROW_BOTTOMFLOOR
   Branch,2,WATER HEATER BRANCH_UNIT3_FRONTROW_BOTTOMFLOOR,DHW LOOP_UNIT3_FRONTROW_BOTTOMFLOOR,Plant Supply,WATER HEATER USE INLET NODE_UNIT3_FRONTROW_BOTTOMFLOOR,WATER HEATER USE OUTLET NODE_UNIT3_FRONTROW_BOTTOMFLOOR
   Branch,3,DHW SUPPLY OUTLET BRANCH_UNIT3_FRONTROW_BOTTOMFLOOR,DHW LOOP_UNIT3_FRONTROW_BOTTOMFLOOR,Plant Supply,DHW SUPPLY OUTLET PIPE INLET NODE_UNIT3_FRONTROW_BOTTOMFLOOR,DHW SUPPLY OUTLET NODE_UNIT3_FRONTROW_BOTTOMFLOOR
 Branch List,25,DHW DEMAND BRANCHES_UNIT3_FRONTROW_BOTTOMFLOOR,DHW LOOP_UNIT3_FRONTROW_BOTTOMFLOOR,Plant Demand,7
   Branch,1,DHW DEMAND INLET BRANCH_UNIT3_FRONTROW_BOTTOMFLOOR,DHW LOOP_UNIT3_FRONTROW_BOTTOMFLOOR,Plant Demand,DHW DEMAND INLET NODE_UNIT3_FRONTROW_BOTTOMFLOOR,DHW DEMAND INLET PIPE OUTLET NODE_UNIT3_FRONTROW_BOTTOMFLOOR
   Branch,2,WATER SINK BRANCH_UNIT3_FRONTROW_BOTTOMFLOOR,DHW LOOP_UNIT3_FRONTROW_BOTTOMFLOOR,Plant Demand,WATER SINK INLET NODE_UNIT3_FRONTROW_BOTTOMFLOOR,WATER SINK OUTLET NODE_UNIT3_FRONTROW_BOTTOMFLOOR
   Branch,3,WATER SHOWER BRANCH_UNIT3_FRONTROW_BOTTOMFLOOR,DHW LOOP_UNIT3_FRONTROW_BOTTOMFLOOR,Plant Demand,WATER SHOWER INLET NODE_UNIT3_FRONTROW_BOTTOMFLOOR,WATER SHOWER OUTLET NODE_UNIT3_FRONTROW_BOTTOMFLOOR
   Branch,4,WATER CLOTHESWASHER BRANCH_UNIT3_FRONTROW_BOTTOMFLOOR,DHW LOOP_UNIT3_FRONTROW_BOTTOMFLOOR,Plant Demand,WATER CLOTHESWASHER INLET NODE_UNIT3_FRONTROW_BOTTOMFLOOR,WATER CLOTHESWASHER OUTLET NODE_UNIT3_FRONTROW_BOTTOMFLOOR
   Branch,5,WATER DISHWASHER BRANCH_UNIT3_FRONTROW_BOTTOMFLOOR,DHW LOOP_UNIT3_FRONTROW_BOTTOMFLOOR,Plant Demand,WATER DISHWASHER INLET NODE_UNIT3_FRONTROW_BOTTOMFLOOR,WATER DISHWASHER OUTLET NODE_UNIT3_FRONTROW_BOTTOMFLOOR
   Branch,6,WATER BATH BRANCH_UNIT3_FRONTROW_BOTTOMFLOOR,DHW LOOP_UNIT3_FRONTROW_BOTTOMFLOOR,Plant Demand,WATER BATH INLET NODE_UNIT3_FRONTROW_BOTTOMFLOOR,WATER BATH OUTLET NODE_UNIT3_FRONTROW_BOTTOMFLOOR
   Branch,7,MAINS MAKEUP BRANCH_UNIT3_FRONTROW_BOTTOMFLOOR,DHW LOOP_UNIT3_FRONTROW_BOTTOMFLOOR,Plant Demand,MAINS MAKEUP PIPE INLET NODE_UNIT3_FRONTROW_BOTTOMFLOOR,MAINS MAKEUP NODE_UNIT3_FRONTROW_BOTTOMFLOOR
 Branch List,26,DHW SUPPLY BRANCHES_UNIT1_BACKROW_BOTTOMFLOOR,DHW LOOP_UNIT1_BACKROW_BOTTOMFLOOR,Plant Supply,3
   Branch,1,MAINS INLET BRANCH_UNIT1_BACKROW_BOTTOMFLOOR,DHW LOOP_UNIT1_BACKROW_BOTTOMFLOOR,Plant Supply,MAINS INLET NODE_UNIT1_BACKROW_BOTTOMFLOOR,MAINS PRESSURE OUTLET NODE_UNIT1_BACKROW_BOTTOMFLOOR
   Branch,2,WATER HEATER BRANCH_UNIT1_BACKROW_BOTTOMFLOOR,DHW LOOP_UNIT1_BACKROW_BOTTOMFLOOR,Plant Supply,WATER HEATER USE INLET NODE_UNIT1_BACKROW_BOTTOMFLOOR,WATER HEATER USE OUTLET NODE_UNIT1_BACKROW_BOTTOMFLOOR
   Branch,3,DHW SUPPLY OUTLET BRANCH_UNIT1_BACKROW_BOTTOMFLOOR,DHW LOOP_UNIT1_BACKROW_BOTTOMFLOOR,Plant Supply,DHW SUPPLY OUTLET PIPE INLET NODE_UNIT1_BACKROW_BOTTOMFLOOR,DHW SUPPLY OUTLET NODE_UNIT1_BACKROW_BOTTOMFLOOR
 Branch List,27,DHW DEMAND BRANCHES_UNIT1_BACKROW_BOTTOMFLOOR,DHW LOOP_UNIT1_BACKROW_BOTTOMFLOOR,Plant Demand,7
   Branch,1,DHW DEMAND INLET BRANCH_UNIT1_BACKROW_BOTTOMFLOOR,DHW LOOP_UNIT1_BACKROW_BOTTOMFLOOR,Plant Demand,DHW DEMAND INLET NODE_UNIT1_BACKROW_BOTTOMFLOOR,DHW DEMAND INLET PIPE OUTLET NODE_UNIT1_BACKROW_BOTTOMFLOOR
   Branch,2,WATER SINK BRANCH_UNIT1_BACKROW_BOTTOMFLOOR,DHW LOOP_UNIT1_BACKROW_BOTTOMFLOOR,Plant Demand,WATER SINK INLET NODE_UNIT1_BACKROW_BOTTOMFLOOR,WATER SINK OUTLET NODE_UNIT1_BACKROW_BOTTOMFLOOR
   Branch,3,WATER SHOWER BRANCH_UNIT1_BACKROW_BOTTOMFLOOR,DHW LOOP_UNIT1_BACKROW_BOTTOMFLOOR,Plant Demand,WATER SHOWER INLET NODE_UNIT1_BACKROW_BOTTOMFLOOR,WATER SHOWER OUTLET NODE_UNIT1_BACKROW_BOTTOMFLOOR
   Branch,4,WATER CLOTHESWASHER BRANCH_UNIT1_BACKROW_BOTTOMFLOOR,DHW LOOP_UNIT1_BACKROW_BOTTOMFLOOR,Plant Demand,WATER CLOTHESWASHER INLET NODE_UNIT1_BACKROW_BOTTOMFLOOR,WATER CLOTHESWASHER OUTLET NODE_UNIT1_BACKROW_BOTTOMFLOOR
   Branch,5,WATER DISHWASHER BRANCH_UNIT1_BACKROW_BOTTOMFLOOR,DHW LOOP_UNIT1_BACKROW_BOTTOMFLOOR,Plant Demand,WATER DISHWASHER INLET NODE_UNIT1_BACKROW_BOTTOMFLOOR,WATER DISHWASHER OUTLET NODE_UNIT1_BACKROW_BOTTOMFLOOR
   Branch,6,WATER BATH BRANCH_UNIT1_BACKROW_BOTTOMFLOOR,DHW LOOP_UNIT1_BACKROW_BOTTOMFLOOR,Plant Demand,WATER BATH INLET NODE_UNIT1_BACKROW_BOTTOMFLOOR,WATER BATH OUTLET NODE_UNIT1_BACKROW_BOTTOMFLOOR
   Branch,7,MAINS MAKEUP BRANCH_UNIT1_BACKROW_BOTTOMFLOOR,DHW LOOP_UNIT1_BACKROW_BOTTOMFLOOR,Plant Demand,MAINS MAKEUP PIPE INLET NODE_UNIT1_BACKROW_BOTTOMFLOOR,MAINS MAKEUP NODE_UNIT1_BACKROW_BOTTOMFLOOR
 Branch List,28,DHW SUPPLY BRANCHES_UNIT2_BACKROW_BOTTOMFLOOR,DHW LOOP_UNIT2_BACKROW_BOTTOMFLOOR,Plant Supply,3
   Branch,1,MAINS INLET BRANCH_UNIT2_BACKROW_BOTTOMFLOOR,DHW LOOP_UNIT2_BACKROW_BOTTOMFLOOR,Plant Supply,MAINS INLET NODE_UNIT2_BACKROW_BOTTOMFLOOR,MAINS PRESSURE OUTLET NODE_UNIT2_BACKROW_BOTTOMFLOOR
   Branch,2,WATER HEATER BRANCH_UNIT2_BACKROW_BOTTOMFLOOR,DHW LOOP_UNIT2_BACKROW_BOTTOMFLOOR,Plant Supply,WATER HEATER USE INLET NODE_UNIT2_BACKROW_BOTTOMFLOOR,WATER HEATER USE OUTLET NODE_UNIT2_BACKROW_BOTTOMFLOOR
   Branch,3,DHW SUPPLY OUTLET BRANCH_UNIT2_BACKROW_BOTTOMFLOOR,DHW LOOP_UNIT2_BACKROW_BOTTOMFLOOR,Plant Supply,DHW SUPPLY OUTLET PIPE INLET NODE_UNIT2_BACKROW_BOTTOMFLOOR,DHW SUPPLY OUTLET NODE_UNIT2_BACKROW_BOTTOMFLOOR
 Branch List,29,DHW DEMAND BRANCHES_UNIT2_BACKROW_BOTTOMFLOOR,DHW LOOP_UNIT2_BACKROW_BOTTOMFLOOR,Plant Demand,7
   Branch,1,DHW DEMAND INLET BRANCH_UNIT2_BACKROW_BOTTOMFLOOR,DHW LOOP_UNIT2_BACKROW_BOTTOMFLOOR,Plant Demand,DHW DEMAND INLET NODE_UNIT2_BACKROW_BOTTOMFLOOR,DHW DEMAND INLET PIPE OUTLET NODE_UNIT2_BACKROW_BOTTOMFLOOR
   Branch,2,WATER SINK BRANCH_UNIT2_BACKROW_BOTTOMFLOOR,DHW LOOP_UNIT2_BACKROW_BOTTOMFLOOR,Plant Demand,WATER SINK INLET NODE_UNIT2_BACKROW_BOTTOMFLOOR,WATER SINK OUTLET NODE_UNIT2_BACKROW_BOTTOMFLOOR
   Branch,3,WATER SHOWER BRANCH_UNIT2_BACKROW_BOTTOMFLOOR,DHW LOOP_UNIT2_BACKROW_BOTTOMFLOOR,Plant Demand,WATER SHOWER INLET NODE_UNIT2_BACKROW_BOTTOMFLOOR,WATER SHOWER OUTLET NODE_UNIT2_BACKROW_BOTTOMFLOOR
   Branch,4,WATER CLOTHESWASHER BRANCH_UNIT2_BACKROW_BOTTOMFLOOR,DHW LOOP_UNIT2_BACKROW_BOTTOMFLOOR,Plant Demand,WATER CLOTHESWASHER INLET NODE_UNIT2_BACKROW_BOTTOMFLOOR,WATER CLOTHESWASHER OUTLET NODE_UNIT2_BACKROW_BOTTOMFLOOR
   Branch,5,WATER DISHWASHER BRANCH_UNIT2_BACKROW_BOTTOMFLOOR,DHW LOOP_UNIT2_BACKROW_BOTTOMFLOOR,Plant Demand,WATER DISHWASHER INLET NODE_UNIT2_BACKROW_BOTTOMFLOOR,WATER DISHWASHER OUTLET NODE_UNIT2_BACKROW_BOTTOMFLOOR
   Branch,6,WATER BATH BRANCH_UNIT2_BACKROW_BOTTOMFLOOR,DHW LOOP_UNIT2_BACKROW_BOTTOMFLOOR,Plant Demand,WATER BATH INLET NODE_UNIT2_BACKROW_BOTTOMFLOOR,WATER BATH OUTLET NODE_UNIT2_BACKROW_BOTTOMFLOOR
   Branch,7,MAINS MAKEUP BRANCH_UNIT2_BACKROW_BOTTOMFLOOR,DHW LOOP_UNIT2_BACKROW_BOTTOMFLOOR,Plant Demand,MAINS MAKEUP PIPE INLET NODE_UNIT2_BACKROW_BOTTOMFLOOR,MAINS MAKEUP NODE_UNIT2_BACKROW_BOTTOMFLOOR
 Branch List,30,DHW SUPPLY BRANCHES_UNIT3_BACKROW_BOTTOMFLOOR,DHW LOOP_UNIT3_BACKROW_BOTTOMFLOOR,Plant Supply,3
   Branch,1,MAINS INLET BRANCH_UNIT3_BACKROW_BOTTOMFLOOR,DHW LOOP_UNIT3_BACKROW_BOTTOMFLOOR,Plant Supply,MAINS INLET NODE_UNIT3_BACKROW_BOTTOMFLOOR,MAINS PRESSURE OUTLET NODE_UNIT3_BACKROW_BOTTOMFLOOR
   Branch,2,WATER HEATER BRANCH_UNIT3_BACKROW_BOTTOMFLOOR,DHW LOOP_UNIT3_BACKROW_BOTTOMFLOOR,Plant Supply,WATER HEATER USE INLET NODE_UNIT3_BACKROW_BOTTOMFLOOR,WATER HEATER USE OUTLET NODE_UNIT3_BACKROW_BOTTOMFLOOR
   Branch,3,DHW SUPPLY OUTLET BRANCH_UNIT3_BACKROW_BOTTOMFLOOR,DHW LOOP_UNIT3_BACKROW_BOTTOMFLOOR,Plant Supply,DHW SUPPLY OUTLET PIPE INLET NODE_UNIT3_BACKROW_BOTTOMFLOOR,DHW SUPPLY OUTLET NODE_UNIT3_BACKROW_BOTTOMFLOOR
 Branch List,31,DHW DEMAND BRANCHES_UNIT3_BACKROW_BOTTOMFLOOR,DHW LOOP_UNIT3_BACKROW_BOTTOMFLOOR,Plant Demand,7
   Branch,1,DHW DEMAND INLET BRANCH_UNIT3_BACKROW_BOTTOMFLOOR,DHW LOOP_UNIT3_BACKROW_BOTTOMFLOOR,Plant Demand,DHW DEMAND INLET NODE_UNIT3_BACKROW_BOTTOMFLOOR,DHW DEMAND INLET PIPE OUTLET NODE_UNIT3_BACKROW_BOTTOMFLOOR
   Branch,2,WATER SINK BRANCH_UNIT3_BACKROW_BOTTOMFLOOR,DHW LOOP_UNIT3_BACKROW_BOTTOMFLOOR,Plant Demand,WATER SINK INLET NODE_UNIT3_BACKROW_BOTTOMFLOOR,WATER SINK OUTLET NODE_UNIT3_BACKROW_BOTTOMFLOOR
   Branch,3,WATER SHOWER BRANCH_UNIT3_BACKROW_BOTTOMFLOOR,DHW LOOP_UNIT3_BACKROW_BOTTOMFLOOR,Plant Demand,WATER SHOWER INLET NODE_UNIT3_BACKROW_BOTTOMFLOOR,WATER SHOWER OUTLET NODE_UNIT3_BACKROW_BOTTOMFLOOR
   Branch,4,WATER CLOTHESWASHER BRANCH_UNIT3_BACKROW_BOTTOMFLOOR,DHW LOOP_UNIT3_BACKROW_BOTTOMFLOOR,Plant Demand,WATER CLOTHESWASHER INLET NODE_UNIT3_BACKROW_BOTTOMFLOOR,WATER CLOTHESWASHER OUTLET NODE_UNIT3_BACKROW_BOTTOMFLOOR
   Branch,5,WATER DISHWASHER BRANCH_UNIT3_BACKROW_BOTTOMFLOOR,DHW LOOP_UNIT3_BACKROW_BOTTOMFLOOR,Plant Demand,WATER DISHWASHER INLET NODE_UNIT3_BACKROW_BOTTOMFLOOR,WATER DISHWASHER OUTLET NODE_UNIT3_BACKROW_BOTTOMFLOOR
   Branch,6,WATER BATH BRANCH_UNIT3_BACKROW_BOTTOMFLOOR,DHW LOOP_UNIT3_BACKROW_BOTTOMFLOOR,Plant Demand,WATER BATH INLET NODE_UNIT3_BACKROW_BOTTOMFLOOR,WATER BATH OUTLET NODE_UNIT3_BACKROW_BOTTOMFLOOR
   Branch,7,MAINS MAKEUP BRANCH_UNIT3_BACKROW_BOTTOMFLOOR,DHW LOOP_UNIT3_BACKROW_BOTTOMFLOOR,Plant Demand,MAINS MAKEUP PIPE INLET NODE_UNIT3_BACKROW_BOTTOMFLOOR,MAINS MAKEUP NODE_UNIT3_BACKROW_BOTTOMFLOOR
 Branch List,32,DHW SUPPLY BRANCHES_UNIT1_FRONTROW_MIDDLEFLOOR,DHW LOOP_UNIT1_FRONTROW_MIDDLEFLOOR,Plant Supply,3
   Branch,1,MAINS INLET BRANCH_UNIT1_FRONTROW_MIDDLEFLOOR,DHW LOOP_UNIT1_FRONTROW_MIDDLEFLOOR,Plant Supply,MAINS INLET NODE_UNIT1_FRONTROW_MIDDLEFLOOR,MAINS PRESSURE OUTLET NODE_UNIT1_FRONTROW_MIDDLEFLOOR
   Branch,2,WATER HEATER BRANCH_UNIT1_FRONTROW_MIDDLEFLOOR,DHW LOOP_UNIT1_FRONTROW_MIDDLEFLOOR,Plant Supply,WATER HEATER USE INLET NODE_UNIT1_FRONTROW_MIDDLEFLOOR,WATER HEATER USE OUTLET NODE_UNIT1_FRONTROW_MIDDLEFLOOR
   Branch,3,DHW SUPPLY OUTLET BRANCH_UNIT1_FRONTROW_MIDDLEFLOOR,DHW LOOP_UNIT1_FRONTROW_MIDDLEFLOOR,Plant Supply,DHW SUPPLY OUTLET PIPE INLET NODE_UNIT1_FRONTROW_MIDDLEFLOOR,DHW SUPPLY OUTLET NODE_UNIT1_FRONTROW_MIDDLEFLOOR
 Branch List,33,DHW DEMAND BRANCHES_UNIT1_FRONTROW_MIDDLEFLOOR,DHW LOOP_UNIT1_FRONTROW_MIDDLEFLOOR,Plant Demand,7
   Branch,1,DHW DEMAND INLET BRANCH_UNIT1_FRONTROW_MIDDLEFLOOR,DHW LOOP_UNIT1_FRONTROW_MIDDLEFLOOR,Plant Demand,DHW DEMAND INLET NODE_UNIT1_FRONTROW_MIDDLEFLOOR,DHW DEMAND INLET PIPE OUTLET NODE_UNIT1_FRONTROW_MIDDLEFLOOR
   Branch,2,WATER SINK BRANCH_UNIT1_FRONTROW_MIDDLEFLOOR,DHW LOOP_UNIT1_FRONTROW_MIDDLEFLOOR,Plant Demand,WATER SINK INLET NODE_UNIT1_FRONTROW_MIDDLEFLOOR,WATER SINK OUTLET NODE_UNIT1_FRONTROW_MIDDLEFLOOR
   Branch,3,WATER SHOWER BRANCH_UNIT1_FRONTROW_MIDDLEFLOOR,DHW LOOP_UNIT1_FRONTROW_MIDDLEFLOOR,Plant Demand,WATER SHOWER INLET NODE_UNIT1_FRONTROW_MIDDLEFLOOR,WATER SHOWER OUTLET NODE_UNIT1_FRONTROW_MIDDLEFLOOR
   Branch,4,WATER CLOTHESWASHER BRANCH_UNIT1_FRONTROW_MIDDLEFLOOR,DHW LOOP_UNIT1_FRONTROW_MIDDLEFLOOR,Plant Demand,WATER CLOTHESWASHER INLET NODE_UNIT1_FRONTROW_MIDDLEFLOOR,WATER CLOTHESWASHER OUTLET NODE_UNIT1_FRONTROW_MIDDLEFLOOR
   Branch,5,WATER DISHWASHER BRANCH_UNIT1_FRONTROW_MIDDLEFLOOR,DHW LOOP_UNIT1_FRONTROW_MIDDLEFLOOR,Plant Demand,WATER DISHWASHER INLET NODE_UNIT1_FRONTROW_MIDDLEFLOOR,WATER DISHWASHER OUTLET NODE_UNIT1_FRONTROW_MIDDLEFLOOR
   Branch,6,WATER BATH BRANCH_UNIT1_FRONTROW_MIDDLEFLOOR,DHW LOOP_UNIT1_FRONTROW_MIDDLEFLOOR,Plant Demand,WATER BATH INLET NODE_UNIT1_FRONTROW_MIDDLEFLOOR,WATER BATH OUTLET NODE_UNIT1_FRONTROW_MIDDLEFLOOR
   Branch,7,MAINS MAKEUP BRANCH_UNIT1_FRONTROW_MIDDLEFLOOR,DHW LOOP_UNIT1_FRONTROW_MIDDLEFLOOR,Plant Demand,MAINS MAKEUP PIPE INLET NODE_UNIT1_FRONTROW_MIDDLEFLOOR,MAINS MAKEUP NODE_UNIT1_FRONTROW_MIDDLEFLOOR
 Branch List,34,DHW SUPPLY BRANCHES_UNIT2_FRONTROW_MIDDLEFLOOR,DHW LOOP_UNIT2_FRONTROW_MIDDLEFLOOR,Plant Supply,3
   Branch,1,MAINS INLET BRANCH_UNIT2_FRONTROW_MIDDLEFLOOR,DHW LOOP_UNIT2_FRONTROW_MIDDLEFLOOR,Plant Supply,MAINS INLET NODE_UNIT2_FRONTROW_MIDDLEFLOOR,MAINS PRESSURE OUTLET NODE_UNIT2_FRONTROW_MIDDLEFLOOR
   Branch,2,WATER HEATER BRANCH_UNIT2_FRONTROW_MIDDLEFLOOR,DHW LOOP_UNIT2_FRONTROW_MIDDLEFLOOR,Plant Supply,WATER HEATER USE INLET NODE_UNIT2_FRONTROW_MIDDLEFLOOR,WATER HEATER USE OUTLET NODE_UNIT2_FRONTROW_MIDDLEFLOOR
   Branch,3,DHW SUPPLY OUTLET BRANCH_UNIT2_FRONTROW_MIDDLEFLOOR,DHW LOOP_UNIT2_FRONTROW_MIDDLEFLOOR,Plant Supply,DHW SUPPLY OUTLET PIPE INLET NODE_UNIT2_FRONTROW_MIDDLEFLOOR,DHW SUPPLY OUTLET NODE_UNIT2_FRONTROW_MIDDLEFLOOR
 Branch List,35,DHW DEMAND BRANCHES_UNIT2_FRONTROW_MIDDLEFLOOR,DHW LOOP_UNIT2_FRONTROW_MIDDLEFLOOR,Plant Demand,7
   Branch,1,DHW DEMAND INLET BRANCH_UNIT2_FRONTROW_MIDDLEFLOOR,DHW LOOP_UNIT2_FRONTROW_MIDDLEFLOOR,Plant Demand,DHW DEMAND INLET NODE_UNIT2_FRONTROW_MIDDLEFLOOR,DHW DEMAND INLET PIPE OUTLET NODE_UNIT2_FRONTROW_MIDDLEFLOOR
   Branch,2,WATER SINK BRANCH_UNIT2_FRONTROW_MIDDLEFLOOR,DHW LOOP_UNIT2_FRONTROW_MIDDLEFLOOR,Plant Demand,WATER SINK INLET NODE_UNIT2_FRONTROW_MIDDLEFLOOR,WATER SINK OUTLET NODE_UNIT2_FRONTROW_MIDDLEFLOOR
   Branch,3,WATER SHOWER BRANCH_UNIT2_FRONTROW_MIDDLEFLOOR,DHW LOOP_UNIT2_FRONTROW_MIDDLEFLOOR,Plant Demand,WATER SHOWER INLET NODE_UNIT2_FRONTROW_MIDDLEFLOOR,WATER SHOWER OUTLET NODE_UNIT2_FRONTROW_MIDDLEFLOOR
   Branch,4,WATER CLOTHESWASHER BRANCH_UNIT2_FRONTROW_MIDDLEFLOOR,DHW LOOP_UNIT2_FRONTROW_MIDDLEFLOOR,Plant Demand,WATER CLOTHESWASHER INLET NODE_UNIT2_FRONTROW_MIDDLEFLOOR,WATER CLOTHESWASHER OUTLET NODE_UNIT2_FRONTROW_MIDDLEFLOOR
   Branch,5,WATER DISHWASHER BRANCH_UNIT2_FRONTROW_MIDDLEFLOOR,DHW LOOP_UNIT2_FRONTROW_MIDDLEFLOOR,Plant Demand,WATER DISHWASHER INLET NODE_UNIT2_FRONTROW_MIDDLEFLOOR,WATER DISHWASHER OUTLET NODE_UNIT2_FRONTROW_MIDDLEFLOOR
   Branch,6,WATER BATH BRANCH_UNIT2_FRONTROW_MIDDLEFLOOR,DHW LOOP_UNIT2_FRONTROW_MIDDLEFLOOR,Plant Demand,WATER BATH INLET NODE_UNIT2_FRONTROW_MIDDLEFLOOR,WATER BATH OUTLET NODE_UNIT2_FRONTROW_MIDDLEFLOOR
   Branch,7,MAINS MAKEUP BRANCH_UNIT2_FRONTROW_MIDDLEFLOOR,DHW LOOP_UNIT2_FRONTROW_MIDDLEFLOOR,Plant Demand,MAINS MAKEUP PIPE INLET NODE_UNIT2_FRONTROW_MIDDLEFLOOR,MAINS MAKEUP NODE_UNIT2_FRONTROW_MIDDLEFLOOR
 Branch List,36,DHW SUPPLY BRANCHES_UNIT3_FRONTROW_MIDDLEFLOOR,DHW LOOP_UNIT3_FRONTROW_MIDDLEFLOOR,Plant Supply,3
   Branch,1,MAINS INLET BRANCH_UNIT3_FRONTROW_MIDDLEFLOOR,DHW LOOP_UNIT3_FRONTROW_MIDDLEFLOOR,Plant Supply,MAINS INLET NODE_UNIT3_FRONTROW_MIDDLEFLOOR,MAINS PRESSURE OUTLET NODE_UNIT3_FRONTROW_MIDDLEFLOOR
   Branch,2,WATER HEATER BRANCH_UNIT3_FRONTROW_MIDDLEFLOOR,DHW LOOP_UNIT3_FRONTROW_MIDDLEFLOOR,Plant Supply,WATER HEATER USE INLET NODE_UNIT3_FRONTROW_MIDDLEFLOOR,WATER HEATER USE OUTLET NODE_UNIT3_FRONTROW_MIDDLEFLOOR
   Branch,3,DHW SUPPLY OUTLET BRANCH_UNIT3_FRONTROW_MIDDLEFLOOR,DHW LOOP_UNIT3_FRONTROW_MIDDLEFLOOR,Plant Supply,DHW SUPPLY OUTLET PIPE INLET NODE_UNIT3_FRONTROW_MIDDLEFLOOR,DHW SUPPLY OUTLET NODE_UNIT3_FRONTROW_MIDDLEFLOOR
 Branch List,37,DHW DEMAND BRANCHES_UNIT3_FRONTROW_MIDDLEFLOOR,DHW LOOP_UNIT3_FRONTROW_MIDDLEFLOOR,Plant Demand,7
   Branch,1,DHW DEMAND INLET BRANCH_UNIT3_FRONTROW_MIDDLEFLOOR,DHW LOOP_UNIT3_FRONTROW_MIDDLEFLOOR,Plant Demand,DHW DEMAND INLET NODE_UNIT3_FRONTROW_MIDDLEFLOOR,DHW DEMAND INLET PIPE OUTLET NODE_UNIT3_FRONTROW_MIDDLEFLOOR
   Branch,2,WATER SINK BRANCH_UNIT3_FRONTROW_MIDDLEFLOOR,DHW LOOP_UNIT3_FRONTROW_MIDDLEFLOOR,Plant Demand,WATER SINK INLET NODE_UNIT3_FRONTROW_MIDDLEFLOOR,WATER SINK OUTLET NODE_UNIT3_FRONTROW_MIDDLEFLOOR
   Branch,3,WATER SHOWER BRANCH_UNIT3_FRONTROW_MIDDLEFLOOR,DHW LOOP_UNIT3_FRONTROW_MIDDLEFLOOR,Plant Demand,WATER SHOWER INLET NODE_UNIT3_FRONTROW_MIDDLEFLOOR,WATER SHOWER OUTLET NODE_UNIT3_FRONTROW_MIDDLEFLOOR
   Branch,4,WATER CLOTHESWASHER BRANCH_UNIT3_FRONTROW_MIDDLEFLOOR,DHW LOOP_UNIT3_FRONTROW_MIDDLEFLOOR,Plant Demand,WATER CLOTHESWASHER INLET NODE_UNIT3_FRONTROW_MIDDLEFLOOR,WATER CLOTHESWASHER OUTLET NODE_UNIT3_FRONTROW_MIDDLEFLOOR
   Branch,5,WATER DISHWASHER BRANCH_UNIT3_FRONTROW_MIDDLEFLOOR,DHW LOOP_UNIT3_FRONTROW_MIDDLEFLOOR,Plant Demand,WATER DISHWASHER INLET NODE_UNIT3_FRONTROW_MIDDLEFLOOR,WATER DISHWASHER OUTLET NODE_UNIT3_FRONTROW_MIDDLEFLOOR
   Branch,6,WATER BATH BRANCH_UNIT3_FRONTROW_MIDDLEFLOOR,DHW LOOP_UNIT3_FRONTROW_MIDDLEFLOOR,Plant Demand,WATER BATH INLET NODE_UNIT3_FRONTROW_MIDDLEFLOOR,WATER BATH OUTLET NODE_UNIT3_FRONTROW_MIDDLEFLOOR
   Branch,7,MAINS MAKEUP BRANCH_UNIT3_FRONTROW_MIDDLEFLOOR,DHW LOOP_UNIT3_FRONTROW_MIDDLEFLOOR,Plant Demand,MAINS MAKEUP PIPE INLET NODE_UNIT3_FRONTROW_MIDDLEFLOOR,MAINS MAKEUP NODE_UNIT3_FRONTROW_MIDDLEFLOOR
 Branch List,38,DHW SUPPLY BRANCHES_UNIT1_BACKROW_MIDDLEFLOOR,DHW LOOP_UNIT1_BACKROW_MIDDLEFLOOR,Plant Supply,3
   Branch,1,MAINS INLET BRANCH_UNIT1_BACKROW_MIDDLEFLOOR,DHW LOOP_UNIT1_BACKROW_MIDDLEFLOOR,Plant Supply,MAINS INLET NODE_UNIT1_BACKROW_MIDDLEFLOOR,MAINS PRESSURE OUTLET NODE_UNIT1_BACKROW_MIDDLEFLOOR
   Branch,2,WATER HEATER BRANCH_UNIT1_BACKROW_MIDDLEFLOOR,DHW LOOP_UNIT1_BACKROW_MIDDLEFLOOR,Plant Supply,WATER HEATER USE INLET NODE_UNIT1_BACKROW_MIDDLEFLOOR,WATER HEATER USE OUTLET NODE_UNIT1_BACKROW_MIDDLEFLOOR
   Branch,3,DHW SUPPLY OUTLET BRANCH_UNIT1_BACKROW_MIDDLEFLOOR,DHW LOOP_UNIT1_BACKROW_MIDDLEFLOOR,Plant Supply,DHW SUPPLY OUTLET PIPE INLET NODE_UNIT1_BACKROW_MIDDLEFLOOR,DHW SUPPLY OUTLET NODE_UNIT1_BACKROW_MIDDLEFLOOR
 Branch List,39,DHW DEMAND BRANCHES_UNIT1_BACKROW_MIDDLEFLOOR,DHW LOOP_UNIT1_BACKROW_MIDDLEFLOOR,Plant Demand,7
   Branch,1,DHW DEMAND INLET BRANCH_UNIT1_BACKROW_MIDDLEFLOOR,DHW LOOP_UNIT1_BACKROW_MIDDLEFLOOR,Plant Demand,DHW DEMAND INLET NODE_UNIT1_BACKROW_MIDDLEFLOOR,DHW DEMAND INLET PIPE OUTLET NODE_UNIT1_BACKROW_MIDDLEFLOOR
   Branch,2,WATER SINK BRANCH_UNIT1_BACKROW_MIDDLEFLOOR,DHW LOOP_UNIT1_BACKROW_MIDDLEFLOOR,Plant Demand,WATER SINK INLET NODE_UNIT1_BACKROW_MIDDLEFLOOR,WATER SINK OUTLET NODE_UNIT1_BACKROW_MIDDLEFLOOR
   Branch,3,WATER SHOWER BRANCH_UNIT1_BACKROW_MIDDLEFLOOR,DHW LOOP_UNIT1_BACKROW_MIDDLEFLOOR,Plant Demand,WATER SHOWER INLET NODE_UNIT1_BACKROW_MIDDLEFLOOR,WATER SHOWER OUTLET NODE_UNIT1_BACKROW_MIDDLEFLOOR
   Branch,4,WATER CLOTHESWASHER BRANCH_UNIT1_BACKROW_MIDDLEFLOOR,DHW LOOP_UNIT1_BACKROW_MIDDLEFLOOR,Plant Demand,WATER CLOTHESWASHER INLET NODE_UNIT1_BACKROW_MIDDLEFLOOR,WATER CLOTHESWASHER OUTLET NODE_UNIT1_BACKROW_MIDDLEFLOOR
   Branch,5,WATER DISHWASHER BRANCH_UNIT1_BACKROW_MIDDLEFLOOR,DHW LOOP_UNIT1_BACKROW_MIDDLEFLOOR,Plant Demand,WATER DISHWASHER INLET NODE_UNIT1_BACKROW_MIDDLEFLOOR,WATER DISHWASHER OUTLET NODE_UNIT1_BACKROW_MIDDLEFLOOR
   Branch,6,WATER BATH BRANCH_UNIT1_BACKROW_MIDDLEFLOOR,DHW LOOP_UNIT1_BACKROW_MIDDLEFLOOR,Plant Demand,WATER BATH INLET NODE_UNIT1_BACKROW_MIDDLEFLOOR,WATER BATH OUTLET NODE_UNIT1_BACKROW_MIDDLEFLOOR
   Branch,7,MAINS MAKEUP BRANCH_UNIT1_BACKROW_MIDDLEFLOOR,DHW LOOP_UNIT1_BACKROW_MIDDLEFLOOR,Plant Demand,MAINS MAKEUP PIPE INLET NODE_UNIT1_BACKROW_MIDDLEFLOOR,MAINS MAKEUP NODE_UNIT1_BACKROW_MIDDLEFLOOR
 Branch List,40,DHW SUPPLY BRANCHES_UNIT2_BACKROW_MIDDLEFLOOR,DHW LOOP_UNIT2_BACKROW_MIDDLEFLOOR,Plant Supply,3
   Branch,1,MAINS INLET BRANCH_UNIT2_BACKROW_MIDDLEFLOOR,DHW LOOP_UNIT2_BACKROW_MIDDLEFLOOR,Plant Supply,MAINS INLET NODE_UNIT2_BACKROW_MIDDLEFLOOR,MAINS PRESSURE OUTLET NODE_UNIT2_BACKROW_MIDDLEFLOOR
   Branch,2,WATER HEATER BRANCH_UNIT2_BACKROW_MIDDLEFLOOR,DHW LOOP_UNIT2_BACKROW_MIDDLEFLOOR,Plant Supply,WATER HEATER USE INLET NODE_UNIT2_BACKROW_MIDDLEFLOOR,WATER HEATER USE OUTLET NODE_UNIT2_BACKROW_MIDDLEFLOOR
   Branch,3,DHW SUPPLY OUTLET BRANCH_UNIT2_BACKROW_MIDDLEFLOOR,DHW LOOP_UNIT2_BACKROW_MIDDLEFLOOR,Plant Supply,DHW SUPPLY OUTLET PIPE INLET NODE_UNIT2_BACKROW_MIDDLEFLOOR,DHW SUPPLY OUTLET NODE_UNIT2_BACKROW_MIDDLEFLOOR
 Branch List,41,DHW DEMAND BRANCHES_UNIT2_BACKROW_MIDDLEFLOOR,DHW LOOP_UNIT2_BACKROW_MIDDLEFLOOR,Plant Demand,7
   Branch,1,DHW DEMAND INLET BRANCH_UNIT2_BACKROW_MIDDLEFLOOR,DHW LOOP_UNIT2_BACKROW_MIDDLEFLOOR,Plant Demand,DHW DEMAND INLET NODE_UNIT2_BACKROW_MIDDLEFLOOR,DHW DEMAND INLET PIPE OUTLET NODE_UNIT2_BACKROW_MIDDLEFLOOR
   Branch,2,WATER SINK BRANCH_UNIT2_BACKROW_MIDDLEFLOOR,DHW LOOP_UNIT2_BACKROW_MIDDLEFLOOR,Plant Demand,WATER SINK INLET NODE_UNIT2_BACKROW_MIDDLEFLOOR,WATER SINK OUTLET NODE_UNIT2_BACKROW_MIDDLEFLOOR
   Branch,3,WATER SHOWER BRANCH_UNIT2_BACKROW_MIDDLEFLOOR,DHW LOOP_UNIT2_BACKROW_MIDDLEFLOOR,Plant Demand,WATER SHOWER INLET NODE_UNIT2_BACKROW_MIDDLEFLOOR,WATER SHOWER OUTLET NODE_UNIT2_BACKROW_MIDDLEFLOOR
   Branch,4,WATER CLOTHESWASHER BRANCH_UNIT2_BACKROW_MIDDLEFLOOR,DHW LOOP_UNIT2_BACKROW_MIDDLEFLOOR,Plant Demand,WATER CLOTHESWASHER INLET NODE_UNIT2_BACKROW_MIDDLEFLOOR,WATER CLOTHESWASHER OUTLET NODE_UNIT2_BACKROW_MIDDLEFLOOR
   Branch,5,WATER DISHWASHER BRANCH_UNIT2_BACKROW_MIDDLEFLOOR,DHW LOOP_UNIT2_BACKROW_MIDDLEFLOOR,Plant Demand,WATER DISHWASHER INLET NODE_UNIT2_BACKROW_MIDDLEFLOOR,WATER DISHWASHER OUTLET NODE_UNIT2_BACKROW_MIDDLEFLOOR
   Branch,6,WATER BATH BRANCH_UNIT2_BACKROW_MIDDLEFLOOR,DHW LOOP_UNIT2_BACKROW_MIDDLEFLOOR,Plant Demand,WATER BATH INLET NODE_UNIT2_BACKROW_MIDDLEFLOOR,WATER BATH OUTLET NODE_UNIT2_BACKROW_MIDDLEFLOOR
[...]
 Non-Parent Node Connection,RETURN AIR MIXER OUTLET_UNIT1_BACKROW_MIDDLEFLOOR,AIRLOOPHVAC:ZONEMIXER,ZONE RETURN AIR MIXER_UNIT1_BACKROW_MIDDLEFLOOR,Outlet,1
 Non-Parent Node Connection,ZONE OUTLET NODE_UNIT1_BACKROW_MIDDLEFLOOR,AIRLOOPHVAC:ZONEMIXER,ZONE RETURN AIR MIXER_UNIT1_BACKROW_MIDDLEFLOOR,Inlet,1
 Non-Parent Node Connection,RETURN AIR MIXER OUTLET_UNIT2_BACKROW_MIDDLEFLOOR,AIRLOOPHVAC:ZONEMIXER,ZONE RETURN AIR MIXER_UNIT2_BACKROW_MIDDLEFLOOR,Outlet,1
 Non-Parent Node Connection,ZONE OUTLET NODE_UNIT2_BACKROW_MIDDLEFLOOR,AIRLOOPHVAC:ZONEMIXER,ZONE RETURN AIR MIXER_UNIT2_BACKROW_MIDDLEFLOOR,Inlet,1
 Non-Parent Node Connection,RETURN AIR MIXER OUTLET_UNIT3_BACKROW_MIDDLEFLOOR,AIRLOOPHVAC:ZONEMIXER,ZONE RETURN AIR MIXER_UNIT3_BACKROW_MIDDLEFLOOR,Outlet,1
 Non-Parent Node Connection,ZONE OUTLET NODE_UNIT3_BACKROW_MIDDLEFLOOR,AIRLOOPHVAC:ZONEMIXER,ZONE RETURN AIR MIXER_UNIT3_BACKROW_MIDDLEFLOOR,Inlet,1
 Non-Parent Node Connection,RETURN AIR MIXER OUTLET_UNIT1_FRONTROW_TOPFLOOR,AIRLOOPHVAC:ZONEMIXER,ZONE RETURN AIR MIXER_UNIT1_FRONTROW_TOPFLOOR,Outlet,1
 Non-Parent Node Connection,ZONE OUTLET NODE_UNIT1_FRONTROW_TOPFLOOR,AIRLOOPHVAC:ZONEMIXER,ZONE RETURN AIR MIXER_UNIT1_FRONTROW_TOPFLOOR,Inlet,1
 Non-Parent Node Connection,RETURN AIR MIXER OUTLET_UNIT2_FRONTROW_TOPFLOOR,AIRLOOPHVAC:ZONEMIXER,ZONE RETURN AIR MIXER_UNIT2_FRONTROW_TOPFLOOR,Outlet,1
 Non-Parent Node Connection,ZONE OUTLET NODE_UNIT2_FRONTROW_TOPFLOOR,AIRLOOPHVAC:ZONEMIXER,ZONE RETURN AIR MIXER_UNIT2_FRONTROW_TOPFLOOR,Inlet,1
 Non-Parent Node Connection,RETURN AIR MIXER OUTLET_UNIT3_FRONTROW_TOPFLOOR,AIRLOOPHVAC:ZONEMIXER,ZONE RETURN AIR MIXER_UNIT3_FRONTROW_TOPFLOOR,Outlet,1
 Non-Parent Node Connection,ZONE OUTLET NODE_UNIT3_FRONTROW_TOPFLOOR,AIRLOOPHVAC:ZONEMIXER,ZONE RETURN AIR MIXER_UNIT3_FRONTROW_TOPFLOOR,Inlet,1
 Non-Parent Node Connection,RETURN AIR MIXER OUTLET_UNIT1_BACKROW_TOPFLOOR,AIRLOOPHVAC:ZONEMIXER,ZONE RETURN AIR MIXER_UNIT1_BACKROW_TOPFLOOR,Outlet,1
 Non-Parent Node Connection,ZONE OUTLET NODE_UNIT1_BACKROW_TOPFLOOR,AIRLOOPHVAC:ZONEMIXER,ZONE RETURN AIR MIXER_UNIT1_BACKROW_TOPFLOOR,Inlet,1
 Non-Parent Node Connection,RETURN AIR MIXER OUTLET_UNIT2_BACKROW_TOPFLOOR,AIRLOOPHVAC:ZONEMIXER,ZONE RETURN AIR MIXER_UNIT2_BACKROW_TOPFLOOR,Outlet,1
 Non-Parent Node Connection,ZONE OUTLET NODE_UNIT2_BACKROW_TOPFLOOR,AIRLOOPHVAC:ZONEMIXER,ZONE RETURN AIR MIXER_UNIT2_BACKROW_TOPFLOOR,Inlet,1
 Non-Parent Node Connection,RETURN AIR MIXER OUTLET_UNIT3_BACKROW_TOPFLOOR,AIRLOOPHVAC:ZONEMIXER,ZONE RETURN AIR MIXER_UNIT3_BACKROW_TOPFLOOR,Outlet,1
 Non-Parent Node Connection,ZONE OUTLET NODE_UNIT3_BACKROW_TOPFLOOR,AIRLOOPHVAC:ZONEMIXER,ZONE RETURN AIR MIXER_UNIT3_BACKROW_TOPFLOOR,Inlet,1
 Non-Parent Node Connection,RETURN AIR MIXER OUTLET_UNITHEATEDBSMT,AIRLOOPHVAC:ZONEMIXER,ZONE RETURN AIR MIXER_UNITHEATEDBSMT,Outlet,1
 Non-Parent Node Connection,ZONE OUTLET NODE_UNITHEATEDBSMT,AIRLOOPHVAC:ZONEMIXER,ZONE RETURN AIR MIXER_UNITHEATEDBSMT,Inlet,1
 Non-Parent Node Connection,HEATING COIL AIR INLET NODE_UNIT1_FRONTROW_BOTTOMFLOOR,COIL:HEATING:FUEL,MAIN FUEL HEATING COIL_UNIT1_FRONTROW_BOTTOMFLOOR,Inlet,1
 Non-Parent Node Connection,AIR LOOP OUTLET NODE_UNIT1_FRONTROW_BOTTOMFLOOR,COIL:HEATING:FUEL,MAIN FUEL HEATING COIL_UNIT1_FRONTROW_BOTTOMFLOOR,Outlet,1
 Non-Parent Node Connection,HEATING COIL AIR INLET NODE_UNIT2_FRONTROW_BOTTOMFLOOR,COIL:HEATING:FUEL,MAIN FUEL HEATING COIL_UNIT2_FRONTROW_BOTTOMFLOOR,Inlet,1
 Non-Parent Node Connection,AIR LOOP OUTLET NODE_UNIT2_FRONTROW_BOTTOMFLOOR,COIL:HEATING:FUEL,MAIN FUEL HEATING COIL_UNIT2_FRONTROW_BOTTOMFLOOR,Outlet,1
 Non-Parent Node Connection,HEATING COIL AIR INLET NODE_UNIT3_FRONTROW_BOTTOMFLOOR,COIL:HEATING:FUEL,MAIN FUEL HEATING COIL_UNIT3_FRONTROW_BOTTOMFLOOR,Inlet,1
 Non-Parent Node Connection,AIR LOOP OUTLET NODE_UNIT3_FRONTROW_BOTTOMFLOOR,COIL:HEATING:FUEL,MAIN FUEL HEATING COIL_UNIT3_FRONTROW_BOTTOMFLOOR,Outlet,1
 Non-Parent Node Connection,HEATING COIL AIR INLET NODE_UNIT1_BACKROW_BOTTOMFLOOR,COIL:HEATING:FUEL,MAIN FUEL HEATING COIL_UNIT1_BACKROW_BOTTOMFLOOR,Inlet,1
 Non-Parent Node Connection,AIR LOOP OUTLET NODE_UNIT1_BACKROW_BOTTOMFLOOR,COIL:HEATING:FUEL,MAIN FUEL HEATING COIL_UNIT1_BACKROW_BOTTOMFLOOR,Outlet,1
 Non-Parent Node Connection,HEATING COIL AIR INLET NODE_UNIT2_BACKROW_BOTTOMFLOOR,COIL:HEATING:FUEL,MAIN FUEL HEATING COIL_UNIT2_BACKROW_BOTTOMFLOOR,Inlet,1
 Non-Parent Node Connection,AIR LOOP OUTLET NODE_UNIT2_BACKROW_BOTTOMFLOOR,COIL:HEATING:FUEL,MAIN FUEL HEATING COIL_UNIT2_BACKROW_BOTTOMFLOOR,Outlet,1
 Non-Parent Node Connection,HEATING COIL AIR INLET NODE_UNIT3_BACKROW_BOTTOMFLOOR,COIL:HEATING:FUEL,MAIN FUEL HEATING COIL_UNIT3_BACKROW_BOTTOMFLOOR,Inlet,1
 Non-Parent Node Connection,AIR LOOP OUTLET NODE_UNIT3_BACKROW_BOTTOMFLOOR,COIL:HEATING:FUEL,MAIN FUEL HEATING COIL_UNIT3_BACKROW_BOTTOMFLOOR,Outlet,1
 Non-Parent Node Connection,HEATING COIL AIR INLET NODE_UNIT1_FRONTROW_MIDDLEFLOOR,COIL:HEATING:FUEL,MAIN FUEL HEATING COIL_UNIT1_FRONTROW_MIDDLEFLOOR,Inlet,1
 Non-Parent Node Connection,AIR LOOP OUTLET NODE_UNIT1_FRONTROW_MIDDLEFLOOR,COIL:HEATING:FUEL,MAIN FUEL HEATING COIL_UNIT1_FRONTROW_MIDDLEFLOOR,Outlet,1
 Non-Parent Node Connection,HEATING COIL AIR INLET NODE_UNIT2_FRONTROW_MIDDLEFLOOR,COIL:HEATING:FUEL,MAIN FUEL HEATING COIL_UNIT2_FRONTROW_MIDDLEFLOOR,Inlet,1
 Non-Parent Node Connection,AIR LOOP OUTLET NODE_UNIT2_FRONTROW_MIDDLEFLOOR,COIL:HEATING:FUEL,MAIN FUEL HEATING COIL_UNIT2_FRONTROW_MIDDLEFLOOR,Outlet,1
 Non-Parent Node Connection,HEATING COIL AIR INLET NODE_UNIT3_FRONTROW_MIDDLEFLOOR,COIL:HEATING:FUEL,MAIN FUEL HEATING COIL_UNIT3_FRONTROW_MIDDLEFLOOR,Inlet,1
 Non-Parent Node Connection,AIR LOOP OUTLET NODE_UNIT3_FRONTROW_MIDDLEFLOOR,COIL:HEATING:FUEL,MAIN FUEL HEATING COIL_UNIT3_FRONTROW_MIDDLEFLOOR,Outlet,1
 Non-Parent Node Connection,HEATING COIL AIR INLET NODE_UNIT1_BACKROW_MIDDLEFLOOR,COIL:HEATING:FUEL,MAIN FUEL HEATING COIL_UNIT1_BACKROW_MIDDLEFLOOR,Inlet,1
 Non-Parent Node Connection,AIR LOOP OUTLET NODE_UNIT1_BACKROW_MIDDLEFLOOR,COIL:HEATING:FUEL,MAIN FUEL HEATING COIL_UNIT1_BACKROW_MIDDLEFLOOR,Outlet,1
 Non-Parent Node Connection,HEATING COIL AIR INLET NODE_UNIT2_BACKROW_MIDDLEFLOOR,COIL:HEATING:FUEL,MAIN FUEL HEATING COIL_UNIT2_BACKROW_MIDDLEFLOOR,Inlet,1
 Non-Parent Node Connection,AIR LOOP OUTLET NODE_UNIT2_BACKROW_MIDDLEFLOOR,COIL:HEATING:FUEL,MAIN FUEL HEATING COIL_UNIT2_BACKROW_MIDDLEFLOOR,Outlet,1
 Non-Parent Node Connection,HEATING COIL AIR INLET NODE_UNIT3_BACKROW_MIDDLEFLOOR,COIL:HEATING:FUEL,MAIN FUEL HEATING COIL_UNIT3_BACKROW_MIDDLEFLOOR,Inlet,1
 Non-Parent Node Connection,AIR LOOP OUTLET NODE_UNIT3_BACKROW_MIDDLEFLOOR,COIL:HEATING:FUEL,MAIN FUEL HEATING COIL_UNIT3_BACKROW_MIDDLEFLOOR,Outlet,1
 Non-Parent Node Connection,HEATING COIL AIR INLET NODE_UNIT1_FRONTROW_TOPFLOOR,COIL:HEATING:FUEL,MAIN FUEL HEATING COIL_UNIT1_FRONTROW_TOPFLOOR,Inlet,1
 Non-Parent Node Connection,AIR LOOP OUTLET NODE_UNIT1_FRONTROW_TOPFLOOR,COIL:HEATING:FUEL,MAIN FUEL HEATING COIL_UNIT1_FRONTROW_TOPFLOOR,Outlet,1
 Non-Parent Node Connection,HEATING COIL AIR INLET NODE_UNIT2_FRONTROW_TOPFLOOR,COIL:HEATING:FUEL,MAIN FUEL HEATING COIL_UNIT2_FRONTROW_TOPFLOOR,Inlet,1
 Non-Parent Node Connection,AIR LOOP OUTLET NODE_UNIT2_FRONTROW_TOPFLOOR,COIL:HEATING:FUEL,MAIN FUEL HEATING COIL_UNIT2_FRONTROW_TOPFLOOR,Outlet,1
 Non-Parent Node Connection,HEATING COIL AIR INLET NODE_UNIT3_FRONTROW_TOPFLOOR,COIL:HEATING:FUEL,MAIN FUEL HEATING COIL_UNIT3_FRONTROW_TOPFLOOR,Inlet,1
 Non-Parent Node Connection,AIR LOOP OUTLET NODE_UNIT3_FRONTROW_TOPFLOOR,COIL:HEATING:FUEL,MAIN FUEL HEATING COIL_UNIT3_FRONTROW_TOPFLOOR,Outlet,1
 Non-Parent Node Connection,HEATING COIL AIR INLET NODE_UNIT1_BACKROW_TOPFLOOR,COIL:HEATING:FUEL,MAIN FUEL HEATING COIL_UNIT1_BACKROW_TOPFLOOR,Inlet,1
 Non-Parent Node Connection,AIR LOOP OUTLET NODE_UNIT1_BACKROW_TOPFLOOR,COIL:HEATING:FUEL,MAIN FUEL HEATING COIL_UNIT1_BACKROW_TOPFLOOR,Outlet,1
 Non-Parent Node Connection,HEATING COIL AIR INLET NODE_UNIT2_BACKROW_TOPFLOOR,COIL:HEATING:FUEL,MAIN FUEL HEATING COIL_UNIT2_BACKROW_TOPFLOOR,Inlet,1
 Non-Parent Node Connection,AIR LOOP OUTLET NODE_UNIT2_BACKROW_TOPFLOOR,COIL:HEATING:FUEL,MAIN FUEL HEATING COIL_UNIT2_BACKROW_TOPFLOOR,Outlet,1
 Non-Parent Node Connection,HEATING COIL AIR INLET NODE_UNIT3_BACKROW_TOPFLOOR,COIL:HEATING:FUEL,MAIN FUEL HEATING COIL_UNIT3_BACKROW_TOPFLOOR,Inlet,1
 Non-Parent Node Connection,AIR LOOP OUTLET NODE_UNIT3_BACKROW_TOPFLOOR,COIL:HEATING:FUEL,MAIN FUEL HEATING COIL_UNIT3_BACKROW_TOPFLOOR,Outlet,1
 Non-Parent Node Connection,HEATING COIL AIR INLET NODE_UNITHEATEDBSMT,COIL:HEATING:FUEL,MAIN FUEL HEATING COIL_UNITHEATEDBSMT,Inlet,1
 Non-Parent Node Connection,AIR LOOP OUTLET NODE_UNITHEATEDBSMT,COIL:HEATING:FUEL,MAIN FUEL HEATING COIL_UNITHEATEDBSMT,Outlet,1
 Non-Parent Node Connection,COOLING COIL AIR INLET NODE_UNIT1_FRONTROW_BOTTOMFLOOR,COIL:COOLING:DX:SINGLESPEED,DX COOLING COIL_UNIT1_FRONTROW_BOTTOMFLOOR,Inlet,1
 Non-Parent Node Connection,HEATING COIL AIR INLET NODE_UNIT1_FRONTROW_BOTTOMFLOOR,COIL:COOLING:DX:SINGLESPEED,DX COOLING COIL_UNIT1_FRONTROW_BOTTOMFLOOR,Outlet,1
 Non-Parent Node Connection,COOLING COIL AIR INLET NODE_UNIT2_FRONTROW_BOTTOMFLOOR,COIL:COOLING:DX:SINGLESPEED,DX COOLING COIL_UNIT2_FRONTROW_BOTTOMFLOOR,Inlet,1
 Non-Parent Node Connection,HEATING COIL AIR INLET NODE_UNIT2_FRONTROW_BOTTOMFLOOR,COIL:COOLING:DX:SINGLESPEED,DX COOLING COIL_UNIT2_FRONTROW_BOTTOMFLOOR,Outlet,1
 Non-Parent Node Connection,COOLING COIL AIR INLET NODE_UNIT3_FRONTROW_BOTTOMFLOOR,COIL:COOLING:DX:SINGLESPEED,DX COOLING COIL_UNIT3_FRONTROW_BOTTOMFLOOR,Inlet,1
 Non-Parent Node Connection,HEATING COIL AIR INLET NODE_UNIT3_FRONTROW_BOTTOMFLOOR,COIL:COOLING:DX:SINGLESPEED,DX COOLING COIL_UNIT3_FRONTROW_BOTTOMFLOOR,Outlet,1
 Non-Parent Node Connection,COOLING COIL AIR INLET NODE_UNIT1_BACKROW_BOTTOMFLOOR,COIL:COOLING:DX:SINGLESPEED,DX COOLING COIL_UNIT1_BACKROW_BOTTOMFLOOR,Inlet,1
 Non-Parent Node Connection,HEATING COIL AIR INLET NODE_UNIT1_BACKROW_BOTTOMFLOOR,COIL:COOLING:DX:SINGLESPEED,DX COOLING COIL_UNIT1_BACKROW_BOTTOMFLOOR,Outlet,1
 Non-Parent Node Connection,COOLING COIL AIR INLET NODE_UNIT2_BACKROW_BOTTOMFLOOR,COIL:COOLING:DX:SINGLESPEED,DX COOLING COIL_UNIT2_BACKROW_BOTTOMFLOOR,Inlet,1
 Non-Parent Node Connection,HEATING COIL AIR INLET NODE_UNIT2_BACKROW_BOTTOMFLOOR,COIL:COOLING:DX:SINGLESPEED,DX COOLING COIL_UNIT2_BACKROW_BOTTOMFLOOR,Outlet,1
 Non-Parent Node Connection,COOLING COIL AIR INLET NODE_UNIT3_BACKROW_BOTTOMFLOOR,COIL:COOLING:DX:SINGLESPEED,DX COOLING COIL_UNIT3_BACKROW_BOTTOMFLOOR,Inlet,1
 Non-Parent Node Connection,HEATING COIL AIR INLET NODE_UNIT3_BACKROW_BOTTOMFLOOR,COIL:COOLING:DX:SINGLESPEED,DX COOLING COIL_UNIT3_BACKROW_BOTTOMFLOOR,Outlet,1
 Non-Parent Node Connection,COOLING COIL AIR INLET NODE_UNIT1_FRONTROW_MIDDLEFLOOR,COIL:COOLING:DX:SINGLESPEED,DX COOLING COIL_UNIT1_FRONTROW_MIDDLEFLOOR,Inlet,1
 Non-Parent Node Connection,HEATING COIL AIR INLET NODE_UNIT1_FRONTROW_MIDDLEFLOOR,COIL:COOLING:DX:SINGLESPEED,DX COOLING COIL_UNIT1_FRONTROW_MIDDLEFLOOR,Outlet,1
 Non-Parent Node Connection,COOLING COIL AIR INLET NODE_UNIT2_FRONTROW_MIDDLEFLOOR,COIL:COOLING:DX:SINGLESPEED,DX COOLING COIL_UNIT2_FRONTROW_MIDDLEFLOOR,Inlet,1
 Non-Parent Node Connection,HEATING COIL AIR INLET NODE_UNIT2_FRONTROW_MIDDLEFLOOR,COIL:COOLING:DX:SINGLESPEED,DX COOLING COIL_UNIT2_FRONTROW_MIDDLEFLOOR,Outlet,1
 Non-Parent Node Connection,COOLING COIL AIR INLET NODE_UNIT3_FRONTROW_MIDDLEFLOOR,COIL:COOLING:DX:SINGLESPEED,DX COOLING COIL_UNIT3_FRONTROW_MIDDLEFLOOR,Inlet,1
 Non-Parent Node Connection,HEATING COIL AIR INLET NODE_UNIT3_FRONTROW_MIDDLEFLOOR,COIL:COOLING:DX:SINGLESPEED,DX COOLING COIL_UNIT3_FRONTROW_MIDDLEFLOOR,Outlet,1
 Non-Parent Node Connection,COOLING COIL AIR INLET NODE_UNIT1_BACKROW_MIDDLEFLOOR,COIL:COOLING:DX:SINGLESPEED,DX COOLING COIL_UNIT1_BACKROW_MIDDLEFLOOR,Inlet,1
 Non-Parent Node Connection,HEATING COIL AIR INLET NODE_UNIT1_BACKROW_MIDDLEFLOOR,COIL:COOLING:DX:SINGLESPEED,DX COOLING COIL_UNIT1_BACKROW_MIDDLEFLOOR,Outlet,1
 Non-Parent Node Connection,COOLING COIL AIR INLET NODE_UNIT2_BACKROW_MIDDLEFLOOR,COIL:COOLING:DX:SINGLESPEED,DX COOLING COIL_UNIT2_BACKROW_MIDDLEFLOOR,Inlet,1
 Non-Parent Node Connection,HEATING COIL AIR INLET NODE_UNIT2_BACKROW_MIDDLEFLOOR,COIL:COOLING:DX:SINGLESPEED,DX COOLING COIL_UNIT2_BACKROW_MIDDLEFLOOR,Outlet,1
 Non-Parent Node Connection,COOLING COIL AIR INLET NODE_UNIT3_BACKROW_MIDDLEFLOOR,COIL:COOLING:DX:SINGLESPEED,DX COOLING COIL_UNIT3_BACKROW_MIDDLEFLOOR,Inlet,1
 Non-Parent Node Connection,HEATING COIL AIR INLET NODE_UNIT3_BACKROW_MIDDLEFLOOR,COIL:COOLING:DX:SINGLESPEED,DX COOLING COIL_UNIT3_BACKROW_MIDDLEFLOOR,Outlet,1
 Non-Parent Node Connection,COOLING COIL AIR INLET NODE_UNIT1_FRONTROW_TOPFLOOR,COIL:COOLING:DX:SINGLESPEED,DX COOLING COIL_UNIT1_FRONTROW_TOPFLOOR,Inlet,1
 Non-Parent Node Connection,HEATING COIL AIR INLET NODE_UNIT1_FRONTROW_TOPFLOOR,COIL:COOLING:DX:SINGLESPEED,DX COOLING COIL_UNIT1_FRONTROW_TOPFLOOR,Outlet,1
 Non-Parent Node Connection,COOLING COIL AIR INLET NODE_UNIT2_FRONTROW_TOPFLOOR,COIL:COOLING:DX:SINGLESPEED,DX COOLING COIL_UNIT2_FRONTROW_TOPFLOOR,Inlet,1
 Non-Parent Node Connection,HEATING COIL AIR INLET NODE_UNIT2_FRONTROW_TOPFLOOR,COIL:COOLING:DX:SINGLESPEED,DX COOLING COIL_UNIT2_FRONTROW_TOPFLOOR,Outlet,1
 Non-Parent Node Connection,COOLING COIL AIR INLET NODE_UNIT3_FRONTROW_TOPFLOOR,COIL:COOLING:DX:SINGLESPEED,DX COOLING COIL_UNIT3_FRONTROW_TOPFLOOR,Inlet,1
 Non-Parent Node Connection,HEATING COIL AIR INLET NODE_UNIT3_FRONTROW_TOPFLOOR,COIL:COOLING:DX:SINGLESPEED,DX COOLING COIL_UNIT3_FRONTROW_TOPFLOOR,Outlet,1
 Non-Parent Node Connection,COOLING COIL AIR INLET NODE_UNIT1_BACKROW_TOPFLOOR,COIL:COOLING:DX:SINGLESPEED,DX COOLING COIL_UNIT1_BACKROW_TOPFLOOR,Inlet,1
 Non-Parent Node Connection,HEATING COIL AIR INLET NODE_UNIT1_BACKROW_TOPFLOOR,COIL:COOLING:DX:SINGLESPEED,DX COOLING COIL_UNIT1_BACKROW_TOPFLOOR,Outlet,1
 Non-Parent Node Connection,COOLING COIL AIR INLET NODE_UNIT2_BACKROW_TOPFLOOR,COIL:COOLING:DX:SINGLESPEED,DX COOLING COIL_UNIT2_BACKROW_TOPFLOOR,Inlet,1
 Non-Parent Node Connection,HEATING COIL AIR INLET NODE_UNIT2_BACKROW_TOPFLOOR,COIL:COOLING:DX:SINGLESPEED,DX COOLING COIL_UNIT2_BACKROW_TOPFLOOR,Outlet,1
 Non-Parent Node Connection,COOLING COIL AIR INLET NODE_UNIT3_BACKROW_TOPFLOOR,COIL:COOLING:DX:SINGLESPEED,DX COOLING COIL_UNIT3_BACKROW_TOPFLOOR,Inlet,1
 Non-Parent Node Connection,HEATING COIL AIR INLET NODE_UNIT3_BACKROW_TOPFLOOR,COIL:COOLING:DX:SINGLESPEED,DX COOLING COIL_UNIT3_BACKROW_TOPFLOOR,Outlet,1
 Non-Parent Node Connection,COOLING COIL AIR INLET NODE_UNITHEATEDBSMT,COIL:COOLING:DX:SINGLESPEED,DX COOLING COIL_UNITHEATEDBSMT,Inlet,1
 Non-Parent Node Connection,HEATING COIL AIR INLET NODE_UNITHEATEDBSMT,COIL:COOLING:DX:SINGLESPEED,DX COOLING COIL_UNITHEATEDBSMT,Outlet,1
 Non-Parent Node Connection,MAINS INLET NODE_UNIT1_FRONTROW_BOTTOMFLOOR,PUMP:VARIABLESPEED,MAINS PRESSURE_UNIT1_FRONTROW_BOTTOMFLOOR,Inlet,1
 Non-Parent Node Connection,MAINS PRESSURE OUTLET NODE_UNIT1_FRONTROW_BOTTOMFLOOR,PUMP:VARIABLESPEED,MAINS PRESSURE_UNIT1_FRONTROW_BOTTOMFLOOR,Outlet,1
 Non-Parent Node Connection,MAINS INLET NODE_UNIT2_FRONTROW_BOTTOMFLOOR,PUMP:VARIABLESPEED,MAINS PRESSURE_UNIT2_FRONTROW_BOTTOMFLOOR,Inlet,1
 Non-Parent Node Connection,MAINS PRESSURE OUTLET NODE_UNIT2_FRONTROW_BOTTOMFLOOR,PUMP:VARIABLESPEED,MAINS PRESSURE_UNIT2_FRONTROW_BOTTOMFLOOR,Outlet,1
 Non-Parent Node Connection,MAINS INLET NODE_UNIT3_FRONTROW_BOTTOMFLOOR,PUMP:VARIABLESPEED,MAINS PRESSURE_UNIT3_FRONTROW_BOTTOMFLOOR,Inlet,1
 Non-Parent Node Connection,MAINS PRESSURE OUTLET NODE_UNIT3_FRONTROW_BOTTOMFLOOR,PUMP:VARIABLESPEED,MAINS PRESSURE_UNIT3_FRONTROW_BOTTOMFLOOR,Outlet,1
 Non-Parent Node Connection,MAINS INLET NODE_UNIT1_BACKROW_BOTTOMFLOOR,PUMP:VARIABLESPEED,MAINS PRESSURE_UNIT1_BACKROW_BOTTOMFLOOR,Inlet,1
 Non-Parent Node Connection,MAINS PRESSURE OUTLET NODE_UNIT1_BACKROW_BOTTOMFLOOR,PUMP:VARIABLESPEED,MAINS PRESSURE_UNIT1_BACKROW_BOTTOMFLOOR,Outlet,1
 Non-Parent Node Connection,MAINS INLET NODE_UNIT2_BACKROW_BOTTOMFLOOR,PUMP:VARIABLESPEED,MAINS PRESSURE_UNIT2_BACKROW_BOTTOMFLOOR,Inlet,1
 Non-Parent Node Connection,MAINS PRESSURE OUTLET NODE_UNIT2_BACKROW_BOTTOMFLOOR,PUMP:VARIABLESPEED,MAINS PRESSURE_UNIT2_BACKROW_BOTTOMFLOOR,Outlet,1
 Non-Parent Node Connection,MAINS INLET NODE_UNIT3_BACKROW_BOTTOMFLOOR,PUMP:VARIABLESPEED,MAINS PRESSURE_UNIT3_BACKROW_BOTTOMFLOOR,Inlet,1
 Non-Parent Node Connection,MAINS PRESSURE OUTLET NODE_UNIT3_BACKROW_BOTTOMFLOOR,PUMP:VARIABLESPEED,MAINS PRESSURE_UNIT3_BACKROW_BOTTOMFLOOR,Outlet,1
 Non-Parent Node Connection,MAINS INLET NODE_UNIT1_FRONTROW_MIDDLEFLOOR,PUMP:VARIABLESPEED,MAINS PRESSURE_UNIT1_FRONTROW_MIDDLEFLOOR,Inlet,1
 Non-Parent Node Connection,MAINS PRESSURE OUTLET NODE_UNIT1_FRONTROW_MIDDLEFLOOR,PUMP:VARIABLESPEED,MAINS PRESSURE_UNIT1_FRONTROW_MIDDLEFLOOR,Outlet,1
 Non-Parent Node Connection,MAINS INLET NODE_UNIT2_FRONTROW_MIDDLEFLOOR,PUMP:VARIABLESPEED,MAINS PRESSURE_UNIT2_FRONTROW_MIDDLEFLOOR,Inlet,1
 Non-Parent Node Connection,MAINS PRESSURE OUTLET NODE_UNIT2_FRONTROW_MIDDLEFLOOR,PUMP:VARIABLESPEED,MAINS PRESSURE_UNIT2_FRONTROW_MIDDLEFLOOR,Outlet,1
 Non-Parent Node Connection,MAINS INLET NODE_UNIT3_FRONTROW_MIDDLEFLOOR,PUMP:VARIABLESPEED,MAINS PRESSURE_UNIT3_FRONTROW_MIDDLEFLOOR,Inlet,1
 Non-Parent Node Connection,MAINS PRESSURE OUTLET NODE_UNIT3_FRONTROW_MIDDLEFLOOR,PUMP:VARIABLESPEED,MAINS PRESSURE_UNIT3_FRONTROW_MIDDLEFLOOR,Outlet,1
 Non-Parent Node Connection,MAINS INLET NODE_UNIT1_BACKROW_MIDDLEFLOOR,PUMP:VARIABLESPEED,MAINS PRESSURE_UNIT1_BACKROW_MIDDLEFLOOR,Inlet,1
 Non-Parent Node Connection,MAINS PRESSURE OUTLET NODE_UNIT1_BACKROW_MIDDLEFLOOR,PUMP:VARIABLESPEED,MAINS PRESSURE_UNIT1_BACKROW_MIDDLEFLOOR,Outlet,1
 Non-Parent Node Connection,MAINS INLET NODE_UNIT2_BACKROW_MIDDLEFLOOR,PUMP:VARIABLESPEED,MAINS PRESSURE_UNIT2_BACKROW_MIDDLEFLOOR,Inlet,1
 Non-Parent Node Connection,MAINS PRESSURE OUTLET NODE_UNIT2_BACKROW_MIDDLEFLOOR,PUMP:VARIABLESPEED,MAINS PRESSURE_UNIT2_BACKROW_MIDDLEFLOOR,Outlet,1
 Non-Parent Node Connection,MAINS INLET NODE_UNIT3_BACKROW_MIDDLEFLOOR,PUMP:VARIABLESPEED,MAINS PRESSURE_UNIT3_BACKROW_MIDDLEFLOOR,Inlet,1
 Non-Parent Node Connection,MAINS PRESSURE OUTLET NODE_UNIT3_BACKROW_MIDDLEFLOOR,PUMP:VARIABLESPEED,MAINS PRESSURE_UNIT3_BACKROW_MIDDLEFLOOR,Outlet,1
 Non-Parent Node Connection,MAINS INLET NODE_UNIT1_FRONTROW_TOPFLOOR,PUMP:VARIABLESPEED,MAINS PRESSURE_UNIT1_FRONTROW_TOPFLOOR,Inlet,1
 Non-Parent Node Connection,MAINS PRESSURE OUTLET NODE_UNIT1_FRONTROW_TOPFLOOR,PUMP:VARIABLESPEED,MAINS PRESSURE_UNIT1_FRONTROW_TOPFLOOR,Outlet,1
 Non-Parent Node Connection,MAINS INLET NODE_UNIT2_FRONTROW_TOPFLOOR,PUMP:VARIABLESPEED,MAINS PRESSURE_UNIT2_FRONTROW_TOPFLOOR,Inlet,1
 Non-Parent Node Connection,MAINS PRESSURE OUTLET NODE_UNIT2_FRONTROW_TOPFLOOR,PUMP:VARIABLESPEED,MAINS PRESSURE_UNIT2_FRONTROW_TOPFLOOR,Outlet,1
 Non-Parent Node Connection,MAINS INLET NODE_UNIT3_FRONTROW_TOPFLOOR,PUMP:VARIABLESPEED,MAINS PRESSURE_UNIT3_FRONTROW_TOPFLOOR,Inlet,1
 Non-Parent Node Connection,MAINS PRESSURE OUTLET NODE_UNIT3_FRONTROW_TOPFLOOR,PUMP:VARIABLESPEED,MAINS PRESSURE_UNIT3_FRONTROW_TOPFLOOR,Outlet,1
 Non-Parent Node Connection,MAINS INLET NODE_UNIT1_BACKROW_TOPFLOOR,PUMP:VARIABLESPEED,MAINS PRESSURE_UNIT1_BACKROW_TOPFLOOR,Inlet,1
 Non-Parent Node Connection,MAINS PRESSURE OUTLET NODE_UNIT1_BACKROW_TOPFLOOR,PUMP:VARIABLESPEED,MAINS PRESSURE_UNIT1_BACKROW_TOPFLOOR,Outlet,1
 Non-Parent Node Connection,MAINS INLET NODE_UNIT2_BACKROW_TOPFLOOR,PUMP:VARIABLESPEED,MAINS PRESSURE_UNIT2_BACKROW_TOPFLOOR,Inlet,1
 Non-Parent Node Connection,MAINS PRESSURE OUTLET NODE_UNIT2_BACKROW_TOPFLOOR,PUMP:VARIABLESPEED,MAINS PRESSURE_UNIT2_BACKROW_TOPFLOOR,Outlet,1
 Non-Parent Node Connection,MAINS INLET NODE_UNIT3_BACKROW_TOPFLOOR,PUMP:VARIABLESPEED,MAINS PRESSURE_UNIT3_BACKROW_TOPFLOOR,Inlet,1
 Non-Parent Node Connection,MAINS PRESSURE OUTLET NODE_UNIT3_BACKROW_TOPFLOOR,PUMP:VARIABLESPEED,MAINS PRESSURE_UNIT3_BACKROW_TOPFLOOR,Outlet,1
