Program Version,EnergyPlus, Version 9.6.0-f420c06a69, YMD=2024.05.14 12:31,
   ** Warning ** Timestep: Requested number (1) is less than the suggested minimum of 4.
   **   ~~~   ** Please see entry for Timestep in Input/Output Reference for discussion of considerations.
   ************* Beginning Zone Sizing Calculations
   ** Warning ** Weather file location will be used rather than entered (IDF) Location object.
   **   ~~~   ** ..Location object=INTERNATIONAL FALLS INTL AP_MN_USA DESIGN_CONDITIONS
   **   ~~~   ** ..Weather File Location=Quebec.City-Ste.Foy-Univ.Laval QC CAN Custom-713920 WMO#=713920
   **   ~~~   ** ..due to location differences, Latitude difference=[1.79] degrees, Longitude difference=[22.11] degrees.
   **   ~~~   ** ..Time Zone difference=[1.0] hour(s), Elevation difference=[74.54] percent, [267.60] meters.
   ** Warning ** GetHTSurfaceData: Surfaces with interface to Ground found but no "Ground Temperatures" were input.
   **   ~~~   ** Found first in surface=BGWALL_LOWER_LDF
   **   ~~~   ** Defaults, constant throughout the year of (18.0) will be used.
   ** Warning ** CalculateZoneVolume: 1 zone is not fully enclosed. For more details use:  Output:Diagnostics,DisplayExtrawarnings; 
   ** Warning ** CheckUsedConstructions: There are 12 nominally unused constructions in input.
   **   ~~~   ** For explicit details on each unused construction, use Output:Diagnostics,DisplayExtraWarnings;
   ** Warning ** GetAirflowNetworkInput: AirflowNetwork:SimulationControl object, 
   **   ~~~   ** ..Specified AirflowNetwork Control = "MultizoneWithDistribution" and ZoneVentilation:* objects are present.
   **   ~~~   ** ..ZoneVentilation objects will not be simulated.
   ************* Beginning System Sizing Calculations
   ** Warning ** Check input. Pump nominal power or motor efficiency is set to 0, for pump=MAINS PRESSURE_UNIT1
   ** Warning ** ValidateDistributionSystem: A ZoneHVAC:EnergyRecoveryVentilator is simulated along with an AirflowNetwork but is not included in the AirflowNetwork.
   ** Warning ** CalcEquipmentFlowRates: Target water temperature is greater than the hot water temperature
   **   ~~~   **  During Warmup, Environment=INTERNATIONAL FALLS INTL AP ANN CLG .4% CONDNS DB=>MWB, at Simulation time=07/21 00:00 - 01:00
   **   ~~~   ** ...target water temperature       = 48.889 C
   **   ~~~   ** ...hot water temperature       = 48.863 C
   **   ~~~   ** ...Note: target water temperature should be less than or equal to the hot water temperature
   **   ~~~   ** ...Target water temperature should be less than or equal to the hot water temperature. Verify temperature setpoints and schedules.
   ** Warning ** CalcEquipmentFlowRates: Target water temperature is greater than the hot water temperature
   **   ~~~   **  During Warmup, Environment=INTERNATIONAL FALLS INTL AP ANN CLG .4% CONDNS DB=>MWB, at Simulation time=07/21 00:00 - 01:00
   **   ~~~   ** ...target water temperature       = 48.889 C
   **   ~~~   ** ...hot water temperature       = 48.863 C
   **   ~~~   ** ...Note: target water temperature should be less than or equal to the hot water temperature
   **   ~~~   ** ...Target water temperature should be less than or equal to the hot water temperature. Verify temperature setpoints and schedules.
   ************* Testing Individual Branch Integrity
   ************* All Branches passed integrity testing
   ************* Testing Individual Supply Air Path Integrity
   ************* All Supply Air Paths passed integrity testing
   ************* Testing Individual Return Air Path Integrity
   ************* All Return Air Paths passed integrity testing
   ************* No node connection errors were found.
   ************* Beginning Simulation
   ** Warning ** In Output:Table:Monthly 'COILLOADS' invalid Variable or Meter Name 'HEATING COIL AIR HEATING RATE'
   ** Warning ** In Output:Table:Monthly 'WATER HEATER: LOADS' invalid Variable or Meter Name 'WATER HEATER TOTAL DEMAND RATE'
   ** Warning ** In Output:Table:Monthly 'WATER HEATER: LOADS' invalid Variable or Meter Name 'WATER HEATER TOTAL DEMAND ENERGY'
   ** Warning ** In Output:Table:Monthly 'LIGHTING LOADS' invalid Variable or Meter Name 'ZONE LIGHTS ELECTRIC CONSUMPTION'
   ** Warning ** In Output:Table:Monthly 'LIGHTING LOADS' invalid Variable or Meter Name 'EXTERIOR LIGHTS ELECTRIC CONSUMPTION'
   ** Warning ** In Output:Table:Monthly 'INTERNALGAINS' invalid Variable or Meter Name 'ZONE PEOPLE TOTAL HEAT GAIN'
   ** Warning ** In Output:Table:Monthly 'INTERNALGAINS' invalid Variable or Meter Name 'ZONE LIGHTS TOTAL HEAT GAIN'
   ** Warning ** In Output:Table:Monthly 'INTERNALGAINS' invalid Variable or Meter Name 'ZONE ELECTRIC EQUIPMENT TOTAL HEAT GAIN'
   ** Warning ** In Output:Table:Monthly 'INTERNALGAINS' invalid Variable or Meter Name 'ZONE GAS EQUIPMENT TOTAL HEAT GAIN'
   ** Warning ** In Output:Table:Monthly 'INTERNALGAINS' invalid Variable or Meter Name 'ZONE OTHER EQUIPMENT TOTAL HEAT GAIN'
   ** Warning ** In Output:Table:Monthly 'INTERNALGAINS' invalid Variable or Meter Name 'ZONE TOTAL INTERNAL TOTAL HEAT GAIN'
   ** Warning ** Processing Monthly Tabular Reports: Variable names not valid for this simulation
   **   ~~~   ** ...use Output:Diagnostics,DisplayExtraWarnings; to show more details on individual variables.
   ************* Simulation Error Summary *************
   ************* There are 25 unused schedules in input.
   ************* There are 19 unused week schedules in input.
   ************* There are 27 unused day schedules in input.
   ************* Use Output:Diagnostics,DisplayUnusedSchedules; to see them.
   *************
   ************* ===== Recurring Error Summary =====
   ************* The following recurring error messages occurred.
   *************
   *************  ** Warning ** CLOTHES WASHER_UNIT1" - Target water temperature should be less than or equal to the hot water temperature error continues...
   *************  **   ~~~   **   This error occurred 9537 total times;
   *************  **   ~~~   **   during Warmup 8169 times;
   *************  **   ~~~   **   during Sizing 0 times.
   *************  **   ~~~   **   Max=48.886989  Min=2.118541
   *************
   *************  ** Warning ** DISHWASHER_UNIT1" - Target water temperature should be less than or equal to the hot water temperature error continues...
   *************  **   ~~~   **   This error occurred 9537 total times;
   *************  **   ~~~   **   during Warmup 8169 times;
   *************  **   ~~~   **   during Sizing 0 times.
   *************  **   ~~~   **   Max=48.886989  Min=2.118541
   *************
   *************
   ************* ===== Final Error Summary =====
   ************* The following error categories occurred.  Consider correcting or noting.
   ************* Nominally Unused Constructions
   ************* ..The nominally unused constructions warning is provided to alert you to potential conditions that can cause
   ************* ..extra time during simulation. Each construction is calculated by the algorithm indicated in the HeatBalanceAlgorithm
   ************* ..object. You may remove the constructions indicated (when you use the DisplayExtraWarnings option).
   *************
   ************* EnergyPlus Warmup Error Summary. During Warmup: 0 Warning; 0 Severe Errors.
   ************* EnergyPlus Sizing Error Summary. During Sizing: 5 Warning; 0 Severe Errors.
   ************* EnergyPlus Completed Successfully-- 19096 Warning; 0 Severe Errors; Elapsed Time=00hr 00min  2.10sec
