Program Version,EnergyPlus, Version 9.6.0-f420c06a69, YMD=2024.05.14 12:32
! This file shows details about the branches, nodes, and other
! elements of the flow connections.
! This file is intended for use in "debugging" potential problems
! that may also be detected by the program, but may be more easily
! identified by "eye".
! This file is also intended to support software which draws a
! schematic diagram of the HVAC system.
! ===============================================================
! #Nodes,<Number of Unique Nodes>
 #Nodes,802
! <Node>,<NodeNumber>,<Node Name>,<Node Fluid Type>,<# Times Node Referenced After Definition>
 Node,1,ZONE INLET NODE_UNIT1_FRONTROW_BOTTOMFLOOR,Air,3
 Node,2,HPWH ZONE INLET NODE_UNIT1_FRONTROW_BOTTOMFLOOR,Air,3
 Node,3,OA INLET NODE_UNIT1_FRONTROW_BOTTOMFLOOR,Air,3
 Node,4,ZONE EXHAUST NODE_UNIT1_FRONTROW_BOTTOMFLOOR,Air,3
 Node,5,ZONE EXHAUST NODE1_UNIT1_FRONTROW_BOTTOMFLOOR,Air,3
 Node,6,ZONE INLET NODE_UNIT2_FRONTROW_BOTTOMFLOOR,Air,3
 Node,7,HPWH ZONE INLET NODE_UNIT2_FRONTROW_BOTTOMFLOOR,Air,3
 Node,8,OA INLET NODE_UNIT2_FRONTROW_BOTTOMFLOOR,Air,3
 Node,9,ZONE EXHAUST NODE_UNIT2_FRONTROW_BOTTOMFLOOR,Air,3
 Node,10,ZONE EXHAUST NODE1_UNIT2_FRONTROW_BOTTOMFLOOR,Air,3
 Node,11,ZONE INLET NODE_UNIT3_FRONTROW_BOTTOMFLOOR,Air,3
 Node,12,HPWH ZONE INLET NODE_UNIT3_FRONTROW_BOTTOMFLOOR,Air,3
 Node,13,OA INLET NODE_UNIT3_FRONTROW_BOTTOMFLOOR,Air,3
 Node,14,ZONE EXHAUST NODE_UNIT3_FRONTROW_BOTTOMFLOOR,Air,3
 Node,15,ZONE EXHAUST NODE1_UNIT3_FRONTROW_BOTTOMFLOOR,Air,3
 Node,16,ZONE INLET NODE_UNIT1_BACKROW_BOTTOMFLOOR,Air,3
 Node,17,HPWH ZONE INLET NODE_UNIT1_BACKROW_BOTTOMFLOOR,Air,3
 Node,18,OA INLET NODE_UNIT1_BACKROW_BOTTOMFLOOR,Air,3
 Node,19,ZONE EXHAUST NODE_UNIT1_BACKROW_BOTTOMFLOOR,Air,3
 Node,20,ZONE EXHAUST NODE1_UNIT1_BACKROW_BOTTOMFLOOR,Air,3
 Node,21,ZONE INLET NODE_UNIT2_BACKROW_BOTTOMFLOOR,Air,3
 Node,22,HPWH ZONE INLET NODE_UNIT2_BACKROW_BOTTOMFLOOR,Air,3
 Node,23,OA INLET NODE_UNIT2_BACKROW_BOTTOMFLOOR,Air,3
 Node,24,ZONE EXHAUST NODE_UNIT2_BACKROW_BOTTOMFLOOR,Air,3
 Node,25,ZONE EXHAUST NODE1_UNIT2_BACKROW_BOTTOMFLOOR,Air,3
 Node,26,ZONE INLET NODE_UNIT3_BACKROW_BOTTOMFLOOR,Air,3
 Node,27,HPWH ZONE INLET NODE_UNIT3_BACKROW_BOTTOMFLOOR,Air,3
 Node,28,OA INLET NODE_UNIT3_BACKROW_BOTTOMFLOOR,Air,3
 Node,29,ZONE EXHAUST NODE_UNIT3_BACKROW_BOTTOMFLOOR,Air,3
 Node,30,ZONE EXHAUST NODE1_UNIT3_BACKROW_BOTTOMFLOOR,Air,3
 Node,31,ZONE INLET NODE_UNIT1_FRONTROW_MIDDLEFLOOR,Air,3
 Node,32,HPWH ZONE INLET NODE_UNIT1_FRONTROW_MIDDLEFLOOR,Air,3
 Node,33,OA INLET NODE_UNIT1_FRONTROW_MIDDLEFLOOR,Air,3
 Node,34,ZONE EXHAUST NODE_UNIT1_FRONTROW_MIDDLEFLOOR,Air,3
 Node,35,ZONE EXHAUST NODE1_UNIT1_FRONTROW_MIDDLEFLOOR,Air,3
 Node,36,ZONE INLET NODE_UNIT2_FRONTROW_MIDDLEFLOOR,Air,3
 Node,37,HPWH ZONE INLET NODE_UNIT2_FRONTROW_MIDDLEFLOOR,Air,3
 Node,38,OA INLET NODE_UNIT2_FRONTROW_MIDDLEFLOOR,Air,3
 Node,39,ZONE EXHAUST NODE_UNIT2_FRONTROW_MIDDLEFLOOR,Air,3
 Node,40,ZONE EXHAUST NODE1_UNIT2_FRONTROW_MIDDLEFLOOR,Air,3
 Node,41,ZONE INLET NODE_UNIT3_FRONTROW_MIDDLEFLOOR,Air,3
 Node,42,HPWH ZONE INLET NODE_UNIT3_FRONTROW_MIDDLEFLOOR,Air,3
 Node,43,OA INLET NODE_UNIT3_FRONTROW_MIDDLEFLOOR,Air,3
 Node,44,ZONE EXHAUST NODE_UNIT3_FRONTROW_MIDDLEFLOOR,Air,3
 Node,45,ZONE EXHAUST NODE1_UNIT3_FRONTROW_MIDDLEFLOOR,Air,3
 Node,46,ZONE INLET NODE_UNIT1_BACKROW_MIDDLEFLOOR,Air,3
 Node,47,HPWH ZONE INLET NODE_UNIT1_BACKROW_MIDDLEFLOOR,Air,3
 Node,48,OA INLET NODE_UNIT1_BACKROW_MIDDLEFLOOR,Air,3
 Node,49,ZONE EXHAUST NODE_UNIT1_BACKROW_MIDDLEFLOOR,Air,3
 Node,50,ZONE EXHAUST NODE1_UNIT1_BACKROW_MIDDLEFLOOR,Air,3
 Node,51,ZONE INLET NODE_UNIT2_BACKROW_MIDDLEFLOOR,Air,3
 Node,52,HPWH ZONE INLET NODE_UNIT2_BACKROW_MIDDLEFLOOR,Air,3
 Node,53,OA INLET NODE_UNIT2_BACKROW_MIDDLEFLOOR,Air,3
 Node,54,ZONE EXHAUST NODE_UNIT2_BACKROW_MIDDLEFLOOR,Air,3
 Node,55,ZONE EXHAUST NODE1_UNIT2_BACKROW_MIDDLEFLOOR,Air,3
 Node,56,ZONE INLET NODE_UNIT3_BACKROW_MIDDLEFLOOR,Air,3
 Node,57,HPWH ZONE INLET NODE_UNIT3_BACKROW_MIDDLEFLOOR,Air,3
 Node,58,OA INLET NODE_UNIT3_BACKROW_MIDDLEFLOOR,Air,3
 Node,59,ZONE EXHAUST NODE_UNIT3_BACKROW_MIDDLEFLOOR,Air,3
 Node,60,ZONE EXHAUST NODE1_UNIT3_BACKROW_MIDDLEFLOOR,Air,3
 Node,61,ZONE INLET NODE_UNIT1_FRONTROW_TOPFLOOR,Air,3
 Node,62,HPWH ZONE INLET NODE_UNIT1_FRONTROW_TOPFLOOR,Air,3
 Node,63,OA INLET NODE_UNIT1_FRONTROW_TOPFLOOR,Air,3
 Node,64,ZONE EXHAUST NODE_UNIT1_FRONTROW_TOPFLOOR,Air,3
 Node,65,ZONE EXHAUST NODE1_UNIT1_FRONTROW_TOPFLOOR,Air,3
 Node,66,ZONE INLET NODE_UNIT2_FRONTROW_TOPFLOOR,Air,3
 Node,67,HPWH ZONE INLET NODE_UNIT2_FRONTROW_TOPFLOOR,Air,3
 Node,68,OA INLET NODE_UNIT2_FRONTROW_TOPFLOOR,Air,3
 Node,69,ZONE EXHAUST NODE_UNIT2_FRONTROW_TOPFLOOR,Air,3
 Node,70,ZONE EXHAUST NODE1_UNIT2_FRONTROW_TOPFLOOR,Air,3
 Node,71,ZONE INLET NODE_UNIT3_FRONTROW_TOPFLOOR,Air,3
 Node,72,HPWH ZONE INLET NODE_UNIT3_FRONTROW_TOPFLOOR,Air,3
 Node,73,OA INLET NODE_UNIT3_FRONTROW_TOPFLOOR,Air,3
 Node,74,ZONE EXHAUST NODE_UNIT3_FRONTROW_TOPFLOOR,Air,3
 Node,75,ZONE EXHAUST NODE1_UNIT3_FRONTROW_TOPFLOOR,Air,3
 Node,76,ZONE INLET NODE_UNIT1_BACKROW_TOPFLOOR,Air,3
 Node,77,HPWH ZONE INLET NODE_UNIT1_BACKROW_TOPFLOOR,Air,3
 Node,78,OA INLET NODE_UNIT1_BACKROW_TOPFLOOR,Air,3
 Node,79,ZONE EXHAUST NODE_UNIT1_BACKROW_TOPFLOOR,Air,3
 Node,80,ZONE EXHAUST NODE1_UNIT1_BACKROW_TOPFLOOR,Air,3
 Node,81,ZONE INLET NODE_UNIT2_BACKROW_TOPFLOOR,Air,3
 Node,82,HPWH ZONE INLET NODE_UNIT2_BACKROW_TOPFLOOR,Air,3
 Node,83,OA INLET NODE_UNIT2_BACKROW_TOPFLOOR,Air,3
 Node,84,ZONE EXHAUST NODE_UNIT2_BACKROW_TOPFLOOR,Air,3
 Node,85,ZONE EXHAUST NODE1_UNIT2_BACKROW_TOPFLOOR,Air,3
 Node,86,ZONE INLET NODE_UNIT3_BACKROW_TOPFLOOR,Air,3
 Node,87,HPWH ZONE INLET NODE_UNIT3_BACKROW_TOPFLOOR,Air,3
 Node,88,OA INLET NODE_UNIT3_BACKROW_TOPFLOOR,Air,3
 Node,89,ZONE EXHAUST NODE_UNIT3_BACKROW_TOPFLOOR,Air,3
 Node,90,ZONE EXHAUST NODE1_UNIT3_BACKROW_TOPFLOOR,Air,3
 Node,91,AIR LOOP INLET NODE_UNIT1_FRONTROW_BOTTOMFLOOR,Air,3
 Node,92,AIR LOOP OUTLET NODE_UNIT1_FRONTROW_BOTTOMFLOOR,Air,3
 Node,93,HEATING COIL WATER INLET NODE_UNIT1_FRONTROW_BOTTOMFLOOR,Water,1
 Node,94,HEATING COIL WATER OUTLET NODE_UNIT1_FRONTROW_BOTTOMFLOOR,Water,1
 Node,95,AIR LOOP INLET NODE_UNIT2_FRONTROW_BOTTOMFLOOR,Air,3
 Node,96,AIR LOOP OUTLET NODE_UNIT2_FRONTROW_BOTTOMFLOOR,Air,3
 Node,97,HEATING COIL WATER INLET NODE_UNIT2_FRONTROW_BOTTOMFLOOR,Water,1
 Node,98,HEATING COIL WATER OUTLET NODE_UNIT2_FRONTROW_BOTTOMFLOOR,Water,1
 Node,99,AIR LOOP INLET NODE_UNIT3_FRONTROW_BOTTOMFLOOR,Air,3
 Node,100,AIR LOOP OUTLET NODE_UNIT3_FRONTROW_BOTTOMFLOOR,Air,3
 Node,101,HEATING COIL WATER INLET NODE_UNIT3_FRONTROW_BOTTOMFLOOR,Water,1
 Node,102,HEATING COIL WATER OUTLET NODE_UNIT3_FRONTROW_BOTTOMFLOOR,Water,1
 Node,103,AIR LOOP INLET NODE_UNIT1_BACKROW_BOTTOMFLOOR,Air,3
 Node,104,AIR LOOP OUTLET NODE_UNIT1_BACKROW_BOTTOMFLOOR,Air,3
 Node,105,HEATING COIL WATER INLET NODE_UNIT1_BACKROW_BOTTOMFLOOR,Water,1
 Node,106,HEATING COIL WATER OUTLET NODE_UNIT1_BACKROW_BOTTOMFLOOR,Water,1
 Node,107,AIR LOOP INLET NODE_UNIT2_BACKROW_BOTTOMFLOOR,Air,3
 Node,108,AIR LOOP OUTLET NODE_UNIT2_BACKROW_BOTTOMFLOOR,Air,3
 Node,109,HEATING COIL WATER INLET NODE_UNIT2_BACKROW_BOTTOMFLOOR,Water,1
 Node,110,HEATING COIL WATER OUTLET NODE_UNIT2_BACKROW_BOTTOMFLOOR,Water,1
 Node,111,AIR LOOP INLET NODE_UNIT3_BACKROW_BOTTOMFLOOR,Air,3
 Node,112,AIR LOOP OUTLET NODE_UNIT3_BACKROW_BOTTOMFLOOR,Air,3
 Node,113,HEATING COIL WATER INLET NODE_UNIT3_BACKROW_BOTTOMFLOOR,Water,1
 Node,114,HEATING COIL WATER OUTLET NODE_UNIT3_BACKROW_BOTTOMFLOOR,Water,1
 Node,115,AIR LOOP INLET NODE_UNIT1_FRONTROW_MIDDLEFLOOR,Air,3
 Node,116,AIR LOOP OUTLET NODE_UNIT1_FRONTROW_MIDDLEFLOOR,Air,3
 Node,117,HEATING COIL WATER INLET NODE_UNIT1_FRONTROW_MIDDLEFLOOR,Water,1
 Node,118,HEATING COIL WATER OUTLET NODE_UNIT1_FRONTROW_MIDDLEFLOOR,Water,1
 Node,119,AIR LOOP INLET NODE_UNIT2_FRONTROW_MIDDLEFLOOR,Air,3
 Node,120,AIR LOOP OUTLET NODE_UNIT2_FRONTROW_MIDDLEFLOOR,Air,3
 Node,121,HEATING COIL WATER INLET NODE_UNIT2_FRONTROW_MIDDLEFLOOR,Water,1
 Node,122,HEATING COIL WATER OUTLET NODE_UNIT2_FRONTROW_MIDDLEFLOOR,Water,1
 Node,123,AIR LOOP INLET NODE_UNIT3_FRONTROW_MIDDLEFLOOR,Air,3
 Node,124,AIR LOOP OUTLET NODE_UNIT3_FRONTROW_MIDDLEFLOOR,Air,3
 Node,125,HEATING COIL WATER INLET NODE_UNIT3_FRONTROW_MIDDLEFLOOR,Water,1
 Node,126,HEATING COIL WATER OUTLET NODE_UNIT3_FRONTROW_MIDDLEFLOOR,Water,1
 Node,127,AIR LOOP INLET NODE_UNIT1_BACKROW_MIDDLEFLOOR,Air,3
 Node,128,AIR LOOP OUTLET NODE_UNIT1_BACKROW_MIDDLEFLOOR,Air,3
 Node,129,HEATING COIL WATER INLET NODE_UNIT1_BACKROW_MIDDLEFLOOR,Water,1
 Node,130,HEATING COIL WATER OUTLET NODE_UNIT1_BACKROW_MIDDLEFLOOR,Water,1
 Node,131,AIR LOOP INLET NODE_UNIT2_BACKROW_MIDDLEFLOOR,Air,3
 Node,132,AIR LOOP OUTLET NODE_UNIT2_BACKROW_MIDDLEFLOOR,Air,3
 Node,133,HEATING COIL WATER INLET NODE_UNIT2_BACKROW_MIDDLEFLOOR,Water,1
 Node,134,HEATING COIL WATER OUTLET NODE_UNIT2_BACKROW_MIDDLEFLOOR,Water,1
 Node,135,AIR LOOP INLET NODE_UNIT3_BACKROW_MIDDLEFLOOR,Air,3
 Node,136,AIR LOOP OUTLET NODE_UNIT3_BACKROW_MIDDLEFLOOR,Air,3
 Node,137,HEATING COIL WATER INLET NODE_UNIT3_BACKROW_MIDDLEFLOOR,Water,1
 Node,138,HEATING COIL WATER OUTLET NODE_UNIT3_BACKROW_MIDDLEFLOOR,Water,1
 Node,139,AIR LOOP INLET NODE_UNIT1_FRONTROW_TOPFLOOR,Air,3
 Node,140,AIR LOOP OUTLET NODE_UNIT1_FRONTROW_TOPFLOOR,Air,3
 Node,141,HEATING COIL WATER INLET NODE_UNIT1_FRONTROW_TOPFLOOR,Water,1
 Node,142,HEATING COIL WATER OUTLET NODE_UNIT1_FRONTROW_TOPFLOOR,Water,1
 Node,143,AIR LOOP INLET NODE_UNIT2_FRONTROW_TOPFLOOR,Air,3
 Node,144,AIR LOOP OUTLET NODE_UNIT2_FRONTROW_TOPFLOOR,Air,3
 Node,145,HEATING COIL WATER INLET NODE_UNIT2_FRONTROW_TOPFLOOR,Water,1
 Node,146,HEATING COIL WATER OUTLET NODE_UNIT2_FRONTROW_TOPFLOOR,Water,1
 Node,147,AIR LOOP INLET NODE_UNIT3_FRONTROW_TOPFLOOR,Air,3
 Node,148,AIR LOOP OUTLET NODE_UNIT3_FRONTROW_TOPFLOOR,Air,3
 Node,149,HEATING COIL WATER INLET NODE_UNIT3_FRONTROW_TOPFLOOR,Water,1
 Node,150,HEATING COIL WATER OUTLET NODE_UNIT3_FRONTROW_TOPFLOOR,Water,1
 Node,151,AIR LOOP INLET NODE_UNIT1_BACKROW_TOPFLOOR,Air,3
 Node,152,AIR LOOP OUTLET NODE_UNIT1_BACKROW_TOPFLOOR,Air,3
 Node,153,HEATING COIL WATER INLET NODE_UNIT1_BACKROW_TOPFLOOR,Water,1
 Node,154,HEATING COIL WATER OUTLET NODE_UNIT1_BACKROW_TOPFLOOR,Water,1
 Node,155,AIR LOOP INLET NODE_UNIT2_BACKROW_TOPFLOOR,Air,3
 Node,156,AIR LOOP OUTLET NODE_UNIT2_BACKROW_TOPFLOOR,Air,3
 Node,157,HEATING COIL WATER INLET NODE_UNIT2_BACKROW_TOPFLOOR,Water,1
 Node,158,HEATING COIL WATER OUTLET NODE_UNIT2_BACKROW_TOPFLOOR,Water,1
 Node,159,AIR LOOP INLET NODE_UNIT3_BACKROW_TOPFLOOR,Air,3
 Node,160,AIR LOOP OUTLET NODE_UNIT3_BACKROW_TOPFLOOR,Air,3
 Node,161,HEATING COIL WATER INLET NODE_UNIT3_BACKROW_TOPFLOOR,Water,1
 Node,162,HEATING COIL WATER OUTLET NODE_UNIT3_BACKROW_TOPFLOOR,Water,1
 Node,163,CENTRAL BOILER INLET NODE,Water,1
 Node,164,CENTRAL BOILER OUTLET NODE,Water,2
 Node,165,HW DEMAND INLET NODE,Water,2
 Node,166,HW DEMAND ENTRANCE PIPE OUTLET NODE,Water,1
 Node,167,HW DEMAND EXIT PIPE INLET NODE,Water,1
 Node,168,HW DEMAND OUTLET NODE,Water,2
 Node,169,HW SUPPLY INLET NODE,Water,2
 Node,170,HW PUMP OUTLET NODE,Water,1
 Node,171,HW SUPPLY EXIT PIPE INLET NODE,Water,1
 Node,172,HW SUPPLY OUTLET NODE,Water,4
 Node,173,MAINS INLET NODE_UNIT1_FRONTROW_BOTTOMFLOOR,Water,2
 Node,174,MAINS PRESSURE OUTLET NODE_UNIT1_FRONTROW_BOTTOMFLOOR,Water,1
 Node,175,DHW SUPPLY OUTLET PIPE INLET NODE_UNIT1_FRONTROW_BOTTOMFLOOR,Water,1
 Node,176,DHW SUPPLY OUTLET NODE_UNIT1_FRONTROW_BOTTOMFLOOR,Water,4
 Node,177,DHW DEMAND INLET NODE_UNIT1_FRONTROW_BOTTOMFLOOR,Water,2
 Node,178,DHW DEMAND INLET PIPE OUTLET NODE_UNIT1_FRONTROW_BOTTOMFLOOR,Water,1
 Node,179,WATER SINK INLET NODE_UNIT1_FRONTROW_BOTTOMFLOOR,Water,1
 Node,180,WATER SINK OUTLET NODE_UNIT1_FRONTROW_BOTTOMFLOOR,Water,1
 Node,181,WATER SHOWER INLET NODE_UNIT1_FRONTROW_BOTTOMFLOOR,Water,1
 Node,182,WATER SHOWER OUTLET NODE_UNIT1_FRONTROW_BOTTOMFLOOR,Water,1
 Node,183,WATER CLOTHESWASHER INLET NODE_UNIT1_FRONTROW_BOTTOMFLOOR,Water,1
 Node,184,WATER CLOTHESWASHER OUTLET NODE_UNIT1_FRONTROW_BOTTOMFLOOR,Water,1
 Node,185,WATER DISHWASHER INLET NODE_UNIT1_FRONTROW_BOTTOMFLOOR,Water,1
 Node,186,WATER DISHWASHER OUTLET NODE_UNIT1_FRONTROW_BOTTOMFLOOR,Water,1
 Node,187,WATER BATH INLET NODE_UNIT1_FRONTROW_BOTTOMFLOOR,Water,1
 Node,188,WATER BATH OUTLET NODE_UNIT1_FRONTROW_BOTTOMFLOOR,Water,1
 Node,189,MAINS MAKEUP PIPE INLET NODE_UNIT1_FRONTROW_BOTTOMFLOOR,Water,1
 Node,190,MAINS MAKEUP NODE_UNIT1_FRONTROW_BOTTOMFLOOR,Water,2
 Node,191,WATER HEATER USE INLET NODE_UNIT1_FRONTROW_BOTTOMFLOOR,Water,2
 Node,192,WATER HEATER USE OUTLET NODE_UNIT1_FRONTROW_BOTTOMFLOOR,Water,2
 Node,193,MAINS INLET NODE_UNIT2_FRONTROW_BOTTOMFLOOR,Water,2
 Node,194,MAINS PRESSURE OUTLET NODE_UNIT2_FRONTROW_BOTTOMFLOOR,Water,1
 Node,195,DHW SUPPLY OUTLET PIPE INLET NODE_UNIT2_FRONTROW_BOTTOMFLOOR,Water,1
 Node,196,DHW SUPPLY OUTLET NODE_UNIT2_FRONTROW_BOTTOMFLOOR,Water,4
 Node,197,DHW DEMAND INLET NODE_UNIT2_FRONTROW_BOTTOMFLOOR,Water,2
 Node,198,DHW DEMAND INLET PIPE OUTLET NODE_UNIT2_FRONTROW_BOTTOMFLOOR,Water,1
 Node,199,WATER SINK INLET NODE_UNIT2_FRONTROW_BOTTOMFLOOR,Water,1
 Node,200,WATER SINK OUTLET NODE_UNIT2_FRONTROW_BOTTOMFLOOR,Water,1
 Node,201,WATER SHOWER INLET NODE_UNIT2_FRONTROW_BOTTOMFLOOR,Water,1
 Node,202,WATER SHOWER OUTLET NODE_UNIT2_FRONTROW_BOTTOMFLOOR,Water,1
 Node,203,WATER CLOTHESWASHER INLET NODE_UNIT2_FRONTROW_BOTTOMFLOOR,Water,1
 Node,204,WATER CLOTHESWASHER OUTLET NODE_UNIT2_FRONTROW_BOTTOMFLOOR,Water,1
 Node,205,WATER DISHWASHER INLET NODE_UNIT2_FRONTROW_BOTTOMFLOOR,Water,1
 Node,206,WATER DISHWASHER OUTLET NODE_UNIT2_FRONTROW_BOTTOMFLOOR,Water,1
 Node,207,WATER BATH INLET NODE_UNIT2_FRONTROW_BOTTOMFLOOR,Water,1
 Node,208,WATER BATH OUTLET NODE_UNIT2_FRONTROW_BOTTOMFLOOR,Water,1
 Node,209,MAINS MAKEUP PIPE INLET NODE_UNIT2_FRONTROW_BOTTOMFLOOR,Water,1
 Node,210,MAINS MAKEUP NODE_UNIT2_FRONTROW_BOTTOMFLOOR,Water,2
 Node,211,WATER HEATER USE INLET NODE_UNIT2_FRONTROW_BOTTOMFLOOR,Water,2
 Node,212,WATER HEATER USE OUTLET NODE_UNIT2_FRONTROW_BOTTOMFLOOR,Water,2
 Node,213,MAINS INLET NODE_UNIT3_FRONTROW_BOTTOMFLOOR,Water,2
 Node,214,MAINS PRESSURE OUTLET NODE_UNIT3_FRONTROW_BOTTOMFLOOR,Water,1
 Node,215,DHW SUPPLY OUTLET PIPE INLET NODE_UNIT3_FRONTROW_BOTTOMFLOOR,Water,1
 Node,216,DHW SUPPLY OUTLET NODE_UNIT3_FRONTROW_BOTTOMFLOOR,Water,4
 Node,217,DHW DEMAND INLET NODE_UNIT3_FRONTROW_BOTTOMFLOOR,Water,2
 Node,218,DHW DEMAND INLET PIPE OUTLET NODE_UNIT3_FRONTROW_BOTTOMFLOOR,Water,1
 Node,219,WATER SINK INLET NODE_UNIT3_FRONTROW_BOTTOMFLOOR,Water,1
 Node,220,WATER SINK OUTLET NODE_UNIT3_FRONTROW_BOTTOMFLOOR,Water,1
 Node,221,WATER SHOWER INLET NODE_UNIT3_FRONTROW_BOTTOMFLOOR,Water,1
 Node,222,WATER SHOWER OUTLET NODE_UNIT3_FRONTROW_BOTTOMFLOOR,Water,1
 Node,223,WATER CLOTHESWASHER INLET NODE_UNIT3_FRONTROW_BOTTOMFLOOR,Water,1
 Node,224,WATER CLOTHESWASHER OUTLET NODE_UNIT3_FRONTROW_BOTTOMFLOOR,Water,1
 Node,225,WATER DISHWASHER INLET NODE_UNIT3_FRONTROW_BOTTOMFLOOR,Water,1
 Node,226,WATER DISHWASHER OUTLET NODE_UNIT3_FRONTROW_BOTTOMFLOOR,Water,1
 Node,227,WATER BATH INLET NODE_UNIT3_FRONTROW_BOTTOMFLOOR,Water,1
 Node,228,WATER BATH OUTLET NODE_UNIT3_FRONTROW_BOTTOMFLOOR,Water,1
 Node,229,MAINS MAKEUP PIPE INLET NODE_UNIT3_FRONTROW_BOTTOMFLOOR,Water,1
 Node,230,MAINS MAKEUP NODE_UNIT3_FRONTROW_BOTTOMFLOOR,Water,2
 Node,231,WATER HEATER USE INLET NODE_UNIT3_FRONTROW_BOTTOMFLOOR,Water,2
 Node,232,WATER HEATER USE OUTLET NODE_UNIT3_FRONTROW_BOTTOMFLOOR,Water,2
 Node,233,MAINS INLET NODE_UNIT1_BACKROW_BOTTOMFLOOR,Water,2
 Node,234,MAINS PRESSURE OUTLET NODE_UNIT1_BACKROW_BOTTOMFLOOR,Water,1
 Node,235,DHW SUPPLY OUTLET PIPE INLET NODE_UNIT1_BACKROW_BOTTOMFLOOR,Water,1
 Node,236,DHW SUPPLY OUTLET NODE_UNIT1_BACKROW_BOTTOMFLOOR,Water,4
 Node,237,DHW DEMAND INLET NODE_UNIT1_BACKROW_BOTTOMFLOOR,Water,2
 Node,238,DHW DEMAND INLET PIPE OUTLET NODE_UNIT1_BACKROW_BOTTOMFLOOR,Water,1
 Node,239,WATER SINK INLET NODE_UNIT1_BACKROW_BOTTOMFLOOR,Water,1
 Node,240,WATER SINK OUTLET NODE_UNIT1_BACKROW_BOTTOMFLOOR,Water,1
 Node,241,WATER SHOWER INLET NODE_UNIT1_BACKROW_BOTTOMFLOOR,Water,1
 Node,242,WATER SHOWER OUTLET NODE_UNIT1_BACKROW_BOTTOMFLOOR,Water,1
 Node,243,WATER CLOTHESWASHER INLET NODE_UNIT1_BACKROW_BOTTOMFLOOR,Water,1
 Node,244,WATER CLOTHESWASHER OUTLET NODE_UNIT1_BACKROW_BOTTOMFLOOR,Water,1
 Node,245,WATER DISHWASHER INLET NODE_UNIT1_BACKROW_BOTTOMFLOOR,Water,1
 Node,246,WATER DISHWASHER OUTLET NODE_UNIT1_BACKROW_BOTTOMFLOOR,Water,1
 Node,247,WATER BATH INLET NODE_UNIT1_BACKROW_BOTTOMFLOOR,Water,1
 Node,248,WATER BATH OUTLET NODE_UNIT1_BACKROW_BOTTOMFLOOR,Water,1
 Node,249,MAINS MAKEUP PIPE INLET NODE_UNIT1_BACKROW_BOTTOMFLOOR,Water,1
 Node,250,MAINS MAKEUP NODE_UNIT1_BACKROW_BOTTOMFLOOR,Water,2
 Node,251,WATER HEATER USE INLET NODE_UNIT1_BACKROW_BOTTOMFLOOR,Water,2
 Node,252,WATER HEATER USE OUTLET NODE_UNIT1_BACKROW_BOTTOMFLOOR,Water,2
 Node,253,MAINS INLET NODE_UNIT2_BACKROW_BOTTOMFLOOR,Water,2
 Node,254,MAINS PRESSURE OUTLET NODE_UNIT2_BACKROW_BOTTOMFLOOR,Water,1
 Node,255,DHW SUPPLY OUTLET PIPE INLET NODE_UNIT2_BACKROW_BOTTOMFLOOR,Water,1
 Node,256,DHW SUPPLY OUTLET NODE_UNIT2_BACKROW_BOTTOMFLOOR,Water,4
 Node,257,DHW DEMAND INLET NODE_UNIT2_BACKROW_BOTTOMFLOOR,Water,2
 Node,258,DHW DEMAND INLET PIPE OUTLET NODE_UNIT2_BACKROW_BOTTOMFLOOR,Water,1
 Node,259,WATER SINK INLET NODE_UNIT2_BACKROW_BOTTOMFLOOR,Water,1
 Node,260,WATER SINK OUTLET NODE_UNIT2_BACKROW_BOTTOMFLOOR,Water,1
 Node,261,WATER SHOWER INLET NODE_UNIT2_BACKROW_BOTTOMFLOOR,Water,1
 Node,262,WATER SHOWER OUTLET NODE_UNIT2_BACKROW_BOTTOMFLOOR,Water,1
 Node,263,WATER CLOTHESWASHER INLET NODE_UNIT2_BACKROW_BOTTOMFLOOR,Water,1
 Node,264,WATER CLOTHESWASHER OUTLET NODE_UNIT2_BACKROW_BOTTOMFLOOR,Water,1
 Node,265,WATER DISHWASHER INLET NODE_UNIT2_BACKROW_BOTTOMFLOOR,Water,1
 Node,266,WATER DISHWASHER OUTLET NODE_UNIT2_BACKROW_BOTTOMFLOOR,Water,1
 Node,267,WATER BATH INLET NODE_UNIT2_BACKROW_BOTTOMFLOOR,Water,1
 Node,268,WATER BATH OUTLET NODE_UNIT2_BACKROW_BOTTOMFLOOR,Water,1
 Node,269,MAINS MAKEUP PIPE INLET NODE_UNIT2_BACKROW_BOTTOMFLOOR,Water,1
 Node,270,MAINS MAKEUP NODE_UNIT2_BACKROW_BOTTOMFLOOR,Water,2
 Node,271,WATER HEATER USE INLET NODE_UNIT2_BACKROW_BOTTOMFLOOR,Water,2
 Node,272,WATER HEATER USE OUTLET NODE_UNIT2_BACKROW_BOTTOMFLOOR,Water,2
 Node,273,MAINS INLET NODE_UNIT3_BACKROW_BOTTOMFLOOR,Water,2
 Node,274,MAINS PRESSURE OUTLET NODE_UNIT3_BACKROW_BOTTOMFLOOR,Water,1
 Node,275,DHW SUPPLY OUTLET PIPE INLET NODE_UNIT3_BACKROW_BOTTOMFLOOR,Water,1
 Node,276,DHW SUPPLY OUTLET NODE_UNIT3_BACKROW_BOTTOMFLOOR,Water,4
 Node,277,DHW DEMAND INLET NODE_UNIT3_BACKROW_BOTTOMFLOOR,Water,2
 Node,278,DHW DEMAND INLET PIPE OUTLET NODE_UNIT3_BACKROW_BOTTOMFLOOR,Water,1
 Node,279,WATER SINK INLET NODE_UNIT3_BACKROW_BOTTOMFLOOR,Water,1
 Node,280,WATER SINK OUTLET NODE_UNIT3_BACKROW_BOTTOMFLOOR,Water,1
 Node,281,WATER SHOWER INLET NODE_UNIT3_BACKROW_BOTTOMFLOOR,Water,1
 Node,282,WATER SHOWER OUTLET NODE_UNIT3_BACKROW_BOTTOMFLOOR,Water,1
 Node,283,WATER CLOTHESWASHER INLET NODE_UNIT3_BACKROW_BOTTOMFLOOR,Water,1
 Node,284,WATER CLOTHESWASHER OUTLET NODE_UNIT3_BACKROW_BOTTOMFLOOR,Water,1
 Node,285,WATER DISHWASHER INLET NODE_UNIT3_BACKROW_BOTTOMFLOOR,Water,1
 Node,286,WATER DISHWASHER OUTLET NODE_UNIT3_BACKROW_BOTTOMFLOOR,Water,1
 Node,287,WATER BATH INLET NODE_UNIT3_BACKROW_BOTTOMFLOOR,Water,1
 Node,288,WATER BATH OUTLET NODE_UNIT3_BACKROW_BOTTOMFLOOR,Water,1
 Node,289,MAINS MAKEUP PIPE INLET NODE_UNIT3_BACKROW_BOTTOMFLOOR,Water,1
 Node,290,MAINS MAKEUP NODE_UNIT3_BACKROW_BOTTOMFLOOR,Water,2
 Node,291,WATER HEATER USE INLET NODE_UNIT3_BACKROW_BOTTOMFLOOR,Water,2
 Node,292,WATER HEATER USE OUTLET NODE_UNIT3_BACKROW_BOTTOMFLOOR,Water,2
 Node,293,MAINS INLET NODE_UNIT1_FRONTROW_MIDDLEFLOOR,Water,2
 Node,294,MAINS PRESSURE OUTLET NODE_UNIT1_FRONTROW_MIDDLEFLOOR,Water,1
 Node,295,DHW SUPPLY OUTLET PIPE INLET NODE_UNIT1_FRONTROW_MIDDLEFLOOR,Water,1
 Node,296,DHW SUPPLY OUTLET NODE_UNIT1_FRONTROW_MIDDLEFLOOR,Water,4
 Node,297,DHW DEMAND INLET NODE_UNIT1_FRONTROW_MIDDLEFLOOR,Water,2
 Node,298,DHW DEMAND INLET PIPE OUTLET NODE_UNIT1_FRONTROW_MIDDLEFLOOR,Water,1
 Node,299,WATER SINK INLET NODE_UNIT1_FRONTROW_MIDDLEFLOOR,Water,1
 Node,300,WATER SINK OUTLET NODE_UNIT1_FRONTROW_MIDDLEFLOOR,Water,1
 Node,301,WATER SHOWER INLET NODE_UNIT1_FRONTROW_MIDDLEFLOOR,Water,1
 Node,302,WATER SHOWER OUTLET NODE_UNIT1_FRONTROW_MIDDLEFLOOR,Water,1
 Node,303,WATER CLOTHESWASHER INLET NODE_UNIT1_FRONTROW_MIDDLEFLOOR,Water,1
 Node,304,WATER CLOTHESWASHER OUTLET NODE_UNIT1_FRONTROW_MIDDLEFLOOR,Water,1
 Node,305,WATER DISHWASHER INLET NODE_UNIT1_FRONTROW_MIDDLEFLOOR,Water,1
 Node,306,WATER DISHWASHER OUTLET NODE_UNIT1_FRONTROW_MIDDLEFLOOR,Water,1
 Node,307,WATER BATH INLET NODE_UNIT1_FRONTROW_MIDDLEFLOOR,Water,1
 Node,308,WATER BATH OUTLET NODE_UNIT1_FRONTROW_MIDDLEFLOOR,Water,1
 Node,309,MAINS MAKEUP PIPE INLET NODE_UNIT1_FRONTROW_MIDDLEFLOOR,Water,1
 Node,310,MAINS MAKEUP NODE_UNIT1_FRONTROW_MIDDLEFLOOR,Water,2
 Node,311,WATER HEATER USE INLET NODE_UNIT1_FRONTROW_MIDDLEFLOOR,Water,2
 Node,312,WATER HEATER USE OUTLET NODE_UNIT1_FRONTROW_MIDDLEFLOOR,Water,2
 Node,313,MAINS INLET NODE_UNIT2_FRONTROW_MIDDLEFLOOR,Water,2
 Node,314,MAINS PRESSURE OUTLET NODE_UNIT2_FRONTROW_MIDDLEFLOOR,Water,1
 Node,315,DHW SUPPLY OUTLET PIPE INLET NODE_UNIT2_FRONTROW_MIDDLEFLOOR,Water,1
 Node,316,DHW SUPPLY OUTLET NODE_UNIT2_FRONTROW_MIDDLEFLOOR,Water,4
 Node,317,DHW DEMAND INLET NODE_UNIT2_FRONTROW_MIDDLEFLOOR,Water,2
 Node,318,DHW DEMAND INLET PIPE OUTLET NODE_UNIT2_FRONTROW_MIDDLEFLOOR,Water,1
 Node,319,WATER SINK INLET NODE_UNIT2_FRONTROW_MIDDLEFLOOR,Water,1
 Node,320,WATER SINK OUTLET NODE_UNIT2_FRONTROW_MIDDLEFLOOR,Water,1
 Node,321,WATER SHOWER INLET NODE_UNIT2_FRONTROW_MIDDLEFLOOR,Water,1
 Node,322,WATER SHOWER OUTLET NODE_UNIT2_FRONTROW_MIDDLEFLOOR,Water,1
 Node,323,WATER CLOTHESWASHER INLET NODE_UNIT2_FRONTROW_MIDDLEFLOOR,Water,1
 Node,324,WATER CLOTHESWASHER OUTLET NODE_UNIT2_FRONTROW_MIDDLEFLOOR,Water,1
 Node,325,WATER DISHWASHER INLET NODE_UNIT2_FRONTROW_MIDDLEFLOOR,Water,1
 Node,326,WATER DISHWASHER OUTLET NODE_UNIT2_FRONTROW_MIDDLEFLOOR,Water,1
 Node,327,WATER BATH INLET NODE_UNIT2_FRONTROW_MIDDLEFLOOR,Water,1
 Node,328,WATER BATH OUTLET NODE_UNIT2_FRONTROW_MIDDLEFLOOR,Water,1
 Node,329,MAINS MAKEUP PIPE INLET NODE_UNIT2_FRONTROW_MIDDLEFLOOR,Water,1
 Node,330,MAINS MAKEUP NODE_UNIT2_FRONTROW_MIDDLEFLOOR,Water,2
 Node,331,WATER HEATER USE INLET NODE_UNIT2_FRONTROW_MIDDLEFLOOR,Water,2
 Node,332,WATER HEATER USE OUTLET NODE_UNIT2_FRONTROW_MIDDLEFLOOR,Water,2
 Node,333,MAINS INLET NODE_UNIT3_FRONTROW_MIDDLEFLOOR,Water,2
 Node,334,MAINS PRESSURE OUTLET NODE_UNIT3_FRONTROW_MIDDLEFLOOR,Water,1
 Node,335,DHW SUPPLY OUTLET PIPE INLET NODE_UNIT3_FRONTROW_MIDDLEFLOOR,Water,1
 Node,336,DHW SUPPLY OUTLET NODE_UNIT3_FRONTROW_MIDDLEFLOOR,Water,4
 Node,337,DHW DEMAND INLET NODE_UNIT3_FRONTROW_MIDDLEFLOOR,Water,2
 Node,338,DHW DEMAND INLET PIPE OUTLET NODE_UNIT3_FRONTROW_MIDDLEFLOOR,Water,1
 Node,339,WATER SINK INLET NODE_UNIT3_FRONTROW_MIDDLEFLOOR,Water,1
 Node,340,WATER SINK OUTLET NODE_UNIT3_FRONTROW_MIDDLEFLOOR,Water,1
 Node,341,WATER SHOWER INLET NODE_UNIT3_FRONTROW_MIDDLEFLOOR,Water,1
 Node,342,WATER SHOWER OUTLET NODE_UNIT3_FRONTROW_MIDDLEFLOOR,Water,1
 Node,343,WATER CLOTHESWASHER INLET NODE_UNIT3_FRONTROW_MIDDLEFLOOR,Water,1
 Node,344,WATER CLOTHESWASHER OUTLET NODE_UNIT3_FRONTROW_MIDDLEFLOOR,Water,1
 Node,345,WATER DISHWASHER INLET NODE_UNIT3_FRONTROW_MIDDLEFLOOR,Water,1
 Node,346,WATER DISHWASHER OUTLET NODE_UNIT3_FRONTROW_MIDDLEFLOOR,Water,1
 Node,347,WATER BATH INLET NODE_UNIT3_FRONTROW_MIDDLEFLOOR,Water,1
 Node,348,WATER BATH OUTLET NODE_UNIT3_FRONTROW_MIDDLEFLOOR,Water,1
 Node,349,MAINS MAKEUP PIPE INLET NODE_UNIT3_FRONTROW_MIDDLEFLOOR,Water,1
 Node,350,MAINS MAKEUP NODE_UNIT3_FRONTROW_MIDDLEFLOOR,Water,2
 Node,351,WATER HEATER USE INLET NODE_UNIT3_FRONTROW_MIDDLEFLOOR,Water,2
 Node,352,WATER HEATER USE OUTLET NODE_UNIT3_FRONTROW_MIDDLEFLOOR,Water,2
 Node,353,MAINS INLET NODE_UNIT1_BACKROW_MIDDLEFLOOR,Water,2
 Node,354,MAINS PRESSURE OUTLET NODE_UNIT1_BACKROW_MIDDLEFLOOR,Water,1
 Node,355,DHW SUPPLY OUTLET PIPE INLET NODE_UNIT1_BACKROW_MIDDLEFLOOR,Water,1
 Node,356,DHW SUPPLY OUTLET NODE_UNIT1_BACKROW_MIDDLEFLOOR,Water,4
 Node,357,DHW DEMAND INLET NODE_UNIT1_BACKROW_MIDDLEFLOOR,Water,2
 Node,358,DHW DEMAND INLET PIPE OUTLET NODE_UNIT1_BACKROW_MIDDLEFLOOR,Water,1
 Node,359,WATER SINK INLET NODE_UNIT1_BACKROW_MIDDLEFLOOR,Water,1
 Node,360,WATER SINK OUTLET NODE_UNIT1_BACKROW_MIDDLEFLOOR,Water,1
 Node,361,WATER SHOWER INLET NODE_UNIT1_BACKROW_MIDDLEFLOOR,Water,1
 Node,362,WATER SHOWER OUTLET NODE_UNIT1_BACKROW_MIDDLEFLOOR,Water,1
 Node,363,WATER CLOTHESWASHER INLET NODE_UNIT1_BACKROW_MIDDLEFLOOR,Water,1
 Node,364,WATER CLOTHESWASHER OUTLET NODE_UNIT1_BACKROW_MIDDLEFLOOR,Water,1
 Node,365,WATER DISHWASHER INLET NODE_UNIT1_BACKROW_MIDDLEFLOOR,Water,1
 Node,366,WATER DISHWASHER OUTLET NODE_UNIT1_BACKROW_MIDDLEFLOOR,Water,1
 Node,367,WATER BATH INLET NODE_UNIT1_BACKROW_MIDDLEFLOOR,Water,1
 Node,368,WATER BATH OUTLET NODE_UNIT1_BACKROW_MIDDLEFLOOR,Water,1
 Node,369,MAINS MAKEUP PIPE INLET NODE_UNIT1_BACKROW_MIDDLEFLOOR,Water,1
 Node,370,MAINS MAKEUP NODE_UNIT1_BACKROW_MIDDLEFLOOR,Water,2
 Node,371,WATER HEATER USE INLET NODE_UNIT1_BACKROW_MIDDLEFLOOR,Water,2
 Node,372,WATER HEATER USE OUTLET NODE_UNIT1_BACKROW_MIDDLEFLOOR,Water,2
 Node,373,MAINS INLET NODE_UNIT2_BACKROW_MIDDLEFLOOR,Water,2
 Node,374,MAINS PRESSURE OUTLET NODE_UNIT2_BACKROW_MIDDLEFLOOR,Water,1
 Node,375,DHW SUPPLY OUTLET PIPE INLET NODE_UNIT2_BACKROW_MIDDLEFLOOR,Water,1
 Node,376,DHW SUPPLY OUTLET NODE_UNIT2_BACKROW_MIDDLEFLOOR,Water,4
 Node,377,DHW DEMAND INLET NODE_UNIT2_BACKROW_MIDDLEFLOOR,Water,2
 Node,378,DHW DEMAND INLET PIPE OUTLET NODE_UNIT2_BACKROW_MIDDLEFLOOR,Water,1
 Node,379,WATER SINK INLET NODE_UNIT2_BACKROW_MIDDLEFLOOR,Water,1
 Node,380,WATER SINK OUTLET NODE_UNIT2_BACKROW_MIDDLEFLOOR,Water,1
 Node,381,WATER SHOWER INLET NODE_UNIT2_BACKROW_MIDDLEFLOOR,Water,1
 Node,382,WATER SHOWER OUTLET NODE_UNIT2_BACKROW_MIDDLEFLOOR,Water,1
 Node,383,WATER CLOTHESWASHER INLET NODE_UNIT2_BACKROW_MIDDLEFLOOR,Water,1
 Node,384,WATER CLOTHESWASHER OUTLET NODE_UNIT2_BACKROW_MIDDLEFLOOR,Water,1
 Node,385,WATER DISHWASHER INLET NODE_UNIT2_BACKROW_MIDDLEFLOOR,Water,1
 Node,386,WATER DISHWASHER OUTLET NODE_UNIT2_BACKROW_MIDDLEFLOOR,Water,1
 Node,387,WATER BATH INLET NODE_UNIT2_BACKROW_MIDDLEFLOOR,Water,1
 Node,388,WATER BATH OUTLET NODE_UNIT2_BACKROW_MIDDLEFLOOR,Water,1
 Node,389,MAINS MAKEUP PIPE INLET NODE_UNIT2_BACKROW_MIDDLEFLOOR,Water,1
 Node,390,MAINS MAKEUP NODE_UNIT2_BACKROW_MIDDLEFLOOR,Water,2
 Node,391,WATER HEATER USE INLET NODE_UNIT2_BACKROW_MIDDLEFLOOR,Water,2
 Node,392,WATER HEATER USE OUTLET NODE_UNIT2_BACKROW_MIDDLEFLOOR,Water,2
 Node,393,MAINS INLET NODE_UNIT3_BACKROW_MIDDLEFLOOR,Water,2
 Node,394,MAINS PRESSURE OUTLET NODE_UNIT3_BACKROW_MIDDLEFLOOR,Water,1
 Node,395,DHW SUPPLY OUTLET PIPE INLET NODE_UNIT3_BACKROW_MIDDLEFLOOR,Water,1
 Node,396,DHW SUPPLY OUTLET NODE_UNIT3_BACKROW_MIDDLEFLOOR,Water,4
 Node,397,DHW DEMAND INLET NODE_UNIT3_BACKROW_MIDDLEFLOOR,Water,2
 Node,398,DHW DEMAND INLET PIPE OUTLET NODE_UNIT3_BACKROW_MIDDLEFLOOR,Water,1
 Node,399,WATER SINK INLET NODE_UNIT3_BACKROW_MIDDLEFLOOR,Water,1
 Node,400,WATER SINK OUTLET NODE_UNIT3_BACKROW_MIDDLEFLOOR,Water,1
 Node,401,WATER SHOWER INLET NODE_UNIT3_BACKROW_MIDDLEFLOOR,Water,1
 Node,402,WATER SHOWER OUTLET NODE_UNIT3_BACKROW_MIDDLEFLOOR,Water,1
 Node,403,WATER CLOTHESWASHER INLET NODE_UNIT3_BACKROW_MIDDLEFLOOR,Water,1
 Node,404,WATER CLOTHESWASHER OUTLET NODE_UNIT3_BACKROW_MIDDLEFLOOR,Water,1
 Node,405,WATER DISHWASHER INLET NODE_UNIT3_BACKROW_MIDDLEFLOOR,Water,1
 Node,406,WATER DISHWASHER OUTLET NODE_UNIT3_BACKROW_MIDDLEFLOOR,Water,1
 Node,407,WATER BATH INLET NODE_UNIT3_BACKROW_MIDDLEFLOOR,Water,1
 Node,408,WATER BATH OUTLET NODE_UNIT3_BACKROW_MIDDLEFLOOR,Water,1
 Node,409,MAINS MAKEUP PIPE INLET NODE_UNIT3_BACKROW_MIDDLEFLOOR,Water,1
 Node,410,MAINS MAKEUP NODE_UNIT3_BACKROW_MIDDLEFLOOR,Water,2
 Node,411,WATER HEATER USE INLET NODE_UNIT3_BACKROW_MIDDLEFLOOR,Water,2
 Node,412,WATER HEATER USE OUTLET NODE_UNIT3_BACKROW_MIDDLEFLOOR,Water,2
 Node,413,MAINS INLET NODE_UNIT1_FRONTROW_TOPFLOOR,Water,2
 Node,414,MAINS PRESSURE OUTLET NODE_UNIT1_FRONTROW_TOPFLOOR,Water,1
 Node,415,DHW SUPPLY OUTLET PIPE INLET NODE_UNIT1_FRONTROW_TOPFLOOR,Water,1
 Node,416,DHW SUPPLY OUTLET NODE_UNIT1_FRONTROW_TOPFLOOR,Water,4
 Node,417,DHW DEMAND INLET NODE_UNIT1_FRONTROW_TOPFLOOR,Water,2
 Node,418,DHW DEMAND INLET PIPE OUTLET NODE_UNIT1_FRONTROW_TOPFLOOR,Water,1
 Node,419,WATER SINK INLET NODE_UNIT1_FRONTROW_TOPFLOOR,Water,1
 Node,420,WATER SINK OUTLET NODE_UNIT1_FRONTROW_TOPFLOOR,Water,1
 Node,421,WATER SHOWER INLET NODE_UNIT1_FRONTROW_TOPFLOOR,Water,1
 Node,422,WATER SHOWER OUTLET NODE_UNIT1_FRONTROW_TOPFLOOR,Water,1
 Node,423,WATER CLOTHESWASHER INLET NODE_UNIT1_FRONTROW_TOPFLOOR,Water,1
 Node,424,WATER CLOTHESWASHER OUTLET NODE_UNIT1_FRONTROW_TOPFLOOR,Water,1
 Node,425,WATER DISHWASHER INLET NODE_UNIT1_FRONTROW_TOPFLOOR,Water,1
 Node,426,WATER DISHWASHER OUTLET NODE_UNIT1_FRONTROW_TOPFLOOR,Water,1
 Node,427,WATER BATH INLET NODE_UNIT1_FRONTROW_TOPFLOOR,Water,1
 Node,428,WATER BATH OUTLET NODE_UNIT1_FRONTROW_TOPFLOOR,Water,1
 Node,429,MAINS MAKEUP PIPE INLET NODE_UNIT1_FRONTROW_TOPFLOOR,Water,1
 Node,430,MAINS MAKEUP NODE_UNIT1_FRONTROW_TOPFLOOR,Water,2
 Node,431,WATER HEATER USE INLET NODE_UNIT1_FRONTROW_TOPFLOOR,Water,2
 Node,432,WATER HEATER USE OUTLET NODE_UNIT1_FRONTROW_TOPFLOOR,Water,2
 Node,433,MAINS INLET NODE_UNIT2_FRONTROW_TOPFLOOR,Water,2
 Node,434,MAINS PRESSURE OUTLET NODE_UNIT2_FRONTROW_TOPFLOOR,Water,1
 Node,435,DHW SUPPLY OUTLET PIPE INLET NODE_UNIT2_FRONTROW_TOPFLOOR,Water,1
 Node,436,DHW SUPPLY OUTLET NODE_UNIT2_FRONTROW_TOPFLOOR,Water,4
 Node,437,DHW DEMAND INLET NODE_UNIT2_FRONTROW_TOPFLOOR,Water,2
 Node,438,DHW DEMAND INLET PIPE OUTLET NODE_UNIT2_FRONTROW_TOPFLOOR,Water,1
 Node,439,WATER SINK INLET NODE_UNIT2_FRONTROW_TOPFLOOR,Water,1
 Node,440,WATER SINK OUTLET NODE_UNIT2_FRONTROW_TOPFLOOR,Water,1
 Node,441,WATER SHOWER INLET NODE_UNIT2_FRONTROW_TOPFLOOR,Water,1
 Node,442,WATER SHOWER OUTLET NODE_UNIT2_FRONTROW_TOPFLOOR,Water,1
 Node,443,WATER CLOTHESWASHER INLET NODE_UNIT2_FRONTROW_TOPFLOOR,Water,1
 Node,444,WATER CLOTHESWASHER OUTLET NODE_UNIT2_FRONTROW_TOPFLOOR,Water,1
 Node,445,WATER DISHWASHER INLET NODE_UNIT2_FRONTROW_TOPFLOOR,Water,1
 Node,446,WATER DISHWASHER OUTLET NODE_UNIT2_FRONTROW_TOPFLOOR,Water,1
 Node,447,WATER BATH INLET NODE_UNIT2_FRONTROW_TOPFLOOR,Water,1
 Node,448,WATER BATH OUTLET NODE_UNIT2_FRONTROW_TOPFLOOR,Water,1
 Node,449,MAINS MAKEUP PIPE INLET NODE_UNIT2_FRONTROW_TOPFLOOR,Water,1
 Node,450,MAINS MAKEUP NODE_UNIT2_FRONTROW_TOPFLOOR,Water,2
 Node,451,WATER HEATER USE INLET NODE_UNIT2_FRONTROW_TOPFLOOR,Water,2
 Node,452,WATER HEATER USE OUTLET NODE_UNIT2_FRONTROW_TOPFLOOR,Water,2
 Node,453,MAINS INLET NODE_UNIT3_FRONTROW_TOPFLOOR,Water,2
 Node,454,MAINS PRESSURE OUTLET NODE_UNIT3_FRONTROW_TOPFLOOR,Water,1
 Node,455,DHW SUPPLY OUTLET PIPE INLET NODE_UNIT3_FRONTROW_TOPFLOOR,Water,1
 Node,456,DHW SUPPLY OUTLET NODE_UNIT3_FRONTROW_TOPFLOOR,Water,4
 Node,457,DHW DEMAND INLET NODE_UNIT3_FRONTROW_TOPFLOOR,Water,2
 Node,458,DHW DEMAND INLET PIPE OUTLET NODE_UNIT3_FRONTROW_TOPFLOOR,Water,1
 Node,459,WATER SINK INLET NODE_UNIT3_FRONTROW_TOPFLOOR,Water,1
 Node,460,WATER SINK OUTLET NODE_UNIT3_FRONTROW_TOPFLOOR,Water,1
 Node,461,WATER SHOWER INLET NODE_UNIT3_FRONTROW_TOPFLOOR,Water,1
 Node,462,WATER SHOWER OUTLET NODE_UNIT3_FRONTROW_TOPFLOOR,Water,1
 Node,463,WATER CLOTHESWASHER INLET NODE_UNIT3_FRONTROW_TOPFLOOR,Water,1
 Node,464,WATER CLOTHESWASHER OUTLET NODE_UNIT3_FRONTROW_TOPFLOOR,Water,1
 Node,465,WATER DISHWASHER INLET NODE_UNIT3_FRONTROW_TOPFLOOR,Water,1
 Node,466,WATER DISHWASHER OUTLET NODE_UNIT3_FRONTROW_TOPFLOOR,Water,1
 Node,467,WATER BATH INLET NODE_UNIT3_FRONTROW_TOPFLOOR,Water,1
 Node,468,WATER BATH OUTLET NODE_UNIT3_FRONTROW_TOPFLOOR,Water,1
 Node,469,MAINS MAKEUP PIPE INLET NODE_UNIT3_FRONTROW_TOPFLOOR,Water,1
 Node,470,MAINS MAKEUP NODE_UNIT3_FRONTROW_TOPFLOOR,Water,2
 Node,471,WATER HEATER USE INLET NODE_UNIT3_FRONTROW_TOPFLOOR,Water,2
 Node,472,WATER HEATER USE OUTLET NODE_UNIT3_FRONTROW_TOPFLOOR,Water,2
 Node,473,MAINS INLET NODE_UNIT1_BACKROW_TOPFLOOR,Water,2
 Node,474,MAINS PRESSURE OUTLET NODE_UNIT1_BACKROW_TOPFLOOR,Water,1
 Node,475,DHW SUPPLY OUTLET PIPE INLET NODE_UNIT1_BACKROW_TOPFLOOR,Water,1
 Node,476,DHW SUPPLY OUTLET NODE_UNIT1_BACKROW_TOPFLOOR,Water,4
 Node,477,DHW DEMAND INLET NODE_UNIT1_BACKROW_TOPFLOOR,Water,2
 Node,478,DHW DEMAND INLET PIPE OUTLET NODE_UNIT1_BACKROW_TOPFLOOR,Water,1
 Node,479,WATER SINK INLET NODE_UNIT1_BACKROW_TOPFLOOR,Water,1
 Node,480,WATER SINK OUTLET NODE_UNIT1_BACKROW_TOPFLOOR,Water,1
 Node,481,WATER SHOWER INLET NODE_UNIT1_BACKROW_TOPFLOOR,Water,1
 Node,482,WATER SHOWER OUTLET NODE_UNIT1_BACKROW_TOPFLOOR,Water,1
 Node,483,WATER CLOTHESWASHER INLET NODE_UNIT1_BACKROW_TOPFLOOR,Water,1
 Node,484,WATER CLOTHESWASHER OUTLET NODE_UNIT1_BACKROW_TOPFLOOR,Water,1
 Node,485,WATER DISHWASHER INLET NODE_UNIT1_BACKROW_TOPFLOOR,Water,1
 Node,486,WATER DISHWASHER OUTLET NODE_UNIT1_BACKROW_TOPFLOOR,Water,1
 Node,487,WATER BATH INLET NODE_UNIT1_BACKROW_TOPFLOOR,Water,1
 Node,488,WATER BATH OUTLET NODE_UNIT1_BACKROW_TOPFLOOR,Water,1
 Node,489,MAINS MAKEUP PIPE INLET NODE_UNIT1_BACKROW_TOPFLOOR,Water,1
 Node,490,MAINS MAKEUP NODE_UNIT1_BACKROW_TOPFLOOR,Water,2
 Node,491,WATER HEATER USE INLET NODE_UNIT1_BACKROW_TOPFLOOR,Water,2
 Node,492,WATER HEATER USE OUTLET NODE_UNIT1_BACKROW_TOPFLOOR,Water,2
 Node,493,MAINS INLET NODE_UNIT2_BACKROW_TOPFLOOR,Water,2
 Node,494,MAINS PRESSURE OUTLET NODE_UNIT2_BACKROW_TOPFLOOR,Water,1
 Node,495,DHW SUPPLY OUTLET PIPE INLET NODE_UNIT2_BACKROW_TOPFLOOR,Water,1
 Node,496,DHW SUPPLY OUTLET NODE_UNIT2_BACKROW_TOPFLOOR,Water,4
 Node,497,DHW DEMAND INLET NODE_UNIT2_BACKROW_TOPFLOOR,Water,2
 Node,498,DHW DEMAND INLET PIPE OUTLET NODE_UNIT2_BACKROW_TOPFLOOR,Water,1
 Node,499,WATER SINK INLET NODE_UNIT2_BACKROW_TOPFLOOR,Water,1
 Node,500,WATER SINK OUTLET NODE_UNIT2_BACKROW_TOPFLOOR,Water,1
 Node,501,WATER SHOWER INLET NODE_UNIT2_BACKROW_TOPFLOOR,Water,1
 Node,502,WATER SHOWER OUTLET NODE_UNIT2_BACKROW_TOPFLOOR,Water,1
 Node,503,WATER CLOTHESWASHER INLET NODE_UNIT2_BACKROW_TOPFLOOR,Water,1
 Node,504,WATER CLOTHESWASHER OUTLET NODE_UNIT2_BACKROW_TOPFLOOR,Water,1
 Node,505,WATER DISHWASHER INLET NODE_UNIT2_BACKROW_TOPFLOOR,Water,1
 Node,506,WATER DISHWASHER OUTLET NODE_UNIT2_BACKROW_TOPFLOOR,Water,1
 Node,507,WATER BATH INLET NODE_UNIT2_BACKROW_TOPFLOOR,Water,1
 Node,508,WATER BATH OUTLET NODE_UNIT2_BACKROW_TOPFLOOR,Water,1
 Node,509,MAINS MAKEUP PIPE INLET NODE_UNIT2_BACKROW_TOPFLOOR,Water,1
 Node,510,MAINS MAKEUP NODE_UNIT2_BACKROW_TOPFLOOR,Water,2
 Node,511,WATER HEATER USE INLET NODE_UNIT2_BACKROW_TOPFLOOR,Water,2
 Node,512,WATER HEATER USE OUTLET NODE_UNIT2_BACKROW_TOPFLOOR,Water,2
 Node,513,MAINS INLET NODE_UNIT3_BACKROW_TOPFLOOR,Water,2
 Node,514,MAINS PRESSURE OUTLET NODE_UNIT3_BACKROW_TOPFLOOR,Water,1
 Node,515,DHW SUPPLY OUTLET PIPE INLET NODE_UNIT3_BACKROW_TOPFLOOR,Water,1
 Node,516,DHW SUPPLY OUTLET NODE_UNIT3_BACKROW_TOPFLOOR,Water,4
 Node,517,DHW DEMAND INLET NODE_UNIT3_BACKROW_TOPFLOOR,Water,2
 Node,518,DHW DEMAND INLET PIPE OUTLET NODE_UNIT3_BACKROW_TOPFLOOR,Water,1
 Node,519,WATER SINK INLET NODE_UNIT3_BACKROW_TOPFLOOR,Water,1
 Node,520,WATER SINK OUTLET NODE_UNIT3_BACKROW_TOPFLOOR,Water,1
 Node,521,WATER SHOWER INLET NODE_UNIT3_BACKROW_TOPFLOOR,Water,1
 Node,522,WATER SHOWER OUTLET NODE_UNIT3_BACKROW_TOPFLOOR,Water,1
 Node,523,WATER CLOTHESWASHER INLET NODE_UNIT3_BACKROW_TOPFLOOR,Water,1
 Node,524,WATER CLOTHESWASHER OUTLET NODE_UNIT3_BACKROW_TOPFLOOR,Water,1
 Node,525,WATER DISHWASHER INLET NODE_UNIT3_BACKROW_TOPFLOOR,Water,1
 Node,526,WATER DISHWASHER OUTLET NODE_UNIT3_BACKROW_TOPFLOOR,Water,1
 Node,527,WATER BATH INLET NODE_UNIT3_BACKROW_TOPFLOOR,Water,1
 Node,528,WATER BATH OUTLET NODE_UNIT3_BACKROW_TOPFLOOR,Water,1
 Node,529,MAINS MAKEUP PIPE INLET NODE_UNIT3_BACKROW_TOPFLOOR,Water,1
 Node,530,MAINS MAKEUP NODE_UNIT3_BACKROW_TOPFLOOR,Water,2
 Node,531,WATER HEATER USE INLET NODE_UNIT3_BACKROW_TOPFLOOR,Water,2
 Node,532,WATER HEATER USE OUTLET NODE_UNIT3_BACKROW_TOPFLOOR,Water,2
 Node,533,ZONE NODE_UNIT1_FRONTROW_BOTTOMFLOOR,Air,0
 Node,534,ZONE OUTLET NODE_UNIT1_FRONTROW_BOTTOMFLOOR,Air,1
 Node,535,ZONE NODE_UNIT2_FRONTROW_BOTTOMFLOOR,Air,0
 Node,536,ZONE OUTLET NODE_UNIT2_FRONTROW_BOTTOMFLOOR,Air,1
 Node,537,ZONE NODE_UNIT3_FRONTROW_BOTTOMFLOOR,Air,0
 Node,538,ZONE OUTLET NODE_UNIT3_FRONTROW_BOTTOMFLOOR,Air,1
 Node,539,ZONE NODE_UNIT1_BACKROW_BOTTOMFLOOR,Air,0
 Node,540,ZONE OUTLET NODE_UNIT1_BACKROW_BOTTOMFLOOR,Air,1
 Node,541,ZONE NODE_UNIT2_BACKROW_BOTTOMFLOOR,Air,0
 Node,542,ZONE OUTLET NODE_UNIT2_BACKROW_BOTTOMFLOOR,Air,1
 Node,543,ZONE NODE_UNIT3_BACKROW_BOTTOMFLOOR,Air,0
 Node,544,ZONE OUTLET NODE_UNIT3_BACKROW_BOTTOMFLOOR,Air,1
 Node,545,ZONE NODE_UNIT1_FRONTROW_MIDDLEFLOOR,Air,0
 Node,546,ZONE OUTLET NODE_UNIT1_FRONTROW_MIDDLEFLOOR,Air,1
 Node,547,ZONE NODE_UNIT2_FRONTROW_MIDDLEFLOOR,Air,0
 Node,548,ZONE OUTLET NODE_UNIT2_FRONTROW_MIDDLEFLOOR,Air,1
 Node,549,ZONE NODE_UNIT3_FRONTROW_MIDDLEFLOOR,Air,0
 Node,550,ZONE OUTLET NODE_UNIT3_FRONTROW_MIDDLEFLOOR,Air,1
 Node,551,ZONE NODE_UNIT1_BACKROW_MIDDLEFLOOR,Air,0
 Node,552,ZONE OUTLET NODE_UNIT1_BACKROW_MIDDLEFLOOR,Air,1
 Node,553,ZONE NODE_UNIT2_BACKROW_MIDDLEFLOOR,Air,0
 Node,554,ZONE OUTLET NODE_UNIT2_BACKROW_MIDDLEFLOOR,Air,1
 Node,555,ZONE NODE_UNIT3_BACKROW_MIDDLEFLOOR,Air,0
 Node,556,ZONE OUTLET NODE_UNIT3_BACKROW_MIDDLEFLOOR,Air,1
 Node,557,ZONE NODE_UNIT1_FRONTROW_TOPFLOOR,Air,0
 Node,558,ZONE OUTLET NODE_UNIT1_FRONTROW_TOPFLOOR,Air,1
 Node,559,ZONE NODE_UNIT2_FRONTROW_TOPFLOOR,Air,0
 Node,560,ZONE OUTLET NODE_UNIT2_FRONTROW_TOPFLOOR,Air,1
 Node,561,ZONE NODE_UNIT3_FRONTROW_TOPFLOOR,Air,0
 Node,562,ZONE OUTLET NODE_UNIT3_FRONTROW_TOPFLOOR,Air,1
 Node,563,ZONE NODE_UNIT1_BACKROW_TOPFLOOR,Air,0
 Node,564,ZONE OUTLET NODE_UNIT1_BACKROW_TOPFLOOR,Air,1
 Node,565,ZONE NODE_UNIT2_BACKROW_TOPFLOOR,Air,0
 Node,566,ZONE OUTLET NODE_UNIT2_BACKROW_TOPFLOOR,Air,1
 Node,567,ZONE NODE_UNIT3_BACKROW_TOPFLOOR,Air,0
 Node,568,ZONE OUTLET NODE_UNIT3_BACKROW_TOPFLOOR,Air,1
 Node,569,ZONE EQUIPMENT INLET NODE_UNIT1_FRONTROW_BOTTOMFLOOR,Air,2
 Node,570,ZONE EQUIPMENT INLET NODE_UNIT2_FRONTROW_BOTTOMFLOOR,Air,2
 Node,571,ZONE EQUIPMENT INLET NODE_UNIT3_FRONTROW_BOTTOMFLOOR,Air,2
 Node,572,ZONE EQUIPMENT INLET NODE_UNIT1_BACKROW_BOTTOMFLOOR,Air,2
 Node,573,ZONE EQUIPMENT INLET NODE_UNIT2_BACKROW_BOTTOMFLOOR,Air,2
 Node,574,ZONE EQUIPMENT INLET NODE_UNIT3_BACKROW_BOTTOMFLOOR,Air,2
 Node,575,ZONE EQUIPMENT INLET NODE_UNIT1_FRONTROW_MIDDLEFLOOR,Air,2
 Node,576,ZONE EQUIPMENT INLET NODE_UNIT2_FRONTROW_MIDDLEFLOOR,Air,2
 Node,577,ZONE EQUIPMENT INLET NODE_UNIT3_FRONTROW_MIDDLEFLOOR,Air,2
 Node,578,ZONE EQUIPMENT INLET NODE_UNIT1_BACKROW_MIDDLEFLOOR,Air,2
 Node,579,ZONE EQUIPMENT INLET NODE_UNIT2_BACKROW_MIDDLEFLOOR,Air,2
 Node,580,ZONE EQUIPMENT INLET NODE_UNIT3_BACKROW_MIDDLEFLOOR,Air,2
 Node,581,ZONE EQUIPMENT INLET NODE_UNIT1_FRONTROW_TOPFLOOR,Air,2
 Node,582,ZONE EQUIPMENT INLET NODE_UNIT2_FRONTROW_TOPFLOOR,Air,2
 Node,583,ZONE EQUIPMENT INLET NODE_UNIT3_FRONTROW_TOPFLOOR,Air,2
 Node,584,ZONE EQUIPMENT INLET NODE_UNIT1_BACKROW_TOPFLOOR,Air,2
 Node,585,ZONE EQUIPMENT INLET NODE_UNIT2_BACKROW_TOPFLOOR,Air,2
 Node,586,ZONE EQUIPMENT INLET NODE_UNIT3_BACKROW_TOPFLOOR,Air,2
 Node,587,RETURN AIR MIXER OUTLET_UNIT1_FRONTROW_BOTTOMFLOOR,Air,2
 Node,588,RETURN AIR MIXER OUTLET_UNIT2_FRONTROW_BOTTOMFLOOR,Air,2
 Node,589,RETURN AIR MIXER OUTLET_UNIT3_FRONTROW_BOTTOMFLOOR,Air,2
 Node,590,RETURN AIR MIXER OUTLET_UNIT1_BACKROW_BOTTOMFLOOR,Air,2
 Node,591,RETURN AIR MIXER OUTLET_UNIT2_BACKROW_BOTTOMFLOOR,Air,2
 Node,592,RETURN AIR MIXER OUTLET_UNIT3_BACKROW_BOTTOMFLOOR,Air,2
 Node,593,RETURN AIR MIXER OUTLET_UNIT1_FRONTROW_MIDDLEFLOOR,Air,2
 Node,594,RETURN AIR MIXER OUTLET_UNIT2_FRONTROW_MIDDLEFLOOR,Air,2
 Node,595,RETURN AIR MIXER OUTLET_UNIT3_FRONTROW_MIDDLEFLOOR,Air,2
 Node,596,RETURN AIR MIXER OUTLET_UNIT1_BACKROW_MIDDLEFLOOR,Air,2
 Node,597,RETURN AIR MIXER OUTLET_UNIT2_BACKROW_MIDDLEFLOOR,Air,2
 Node,598,RETURN AIR MIXER OUTLET_UNIT3_BACKROW_MIDDLEFLOOR,Air,2
 Node,599,RETURN AIR MIXER OUTLET_UNIT1_FRONTROW_TOPFLOOR,Air,2
 Node,600,RETURN AIR MIXER OUTLET_UNIT2_FRONTROW_TOPFLOOR,Air,2
 Node,601,RETURN AIR MIXER OUTLET_UNIT3_FRONTROW_TOPFLOOR,Air,2
 Node,602,RETURN AIR MIXER OUTLET_UNIT1_BACKROW_TOPFLOOR,Air,2
 Node,603,RETURN AIR MIXER OUTLET_UNIT2_BACKROW_TOPFLOOR,Air,2
 Node,604,RETURN AIR MIXER OUTLET_UNIT3_BACKROW_TOPFLOOR,Air,2
 Node,605,COOLING COIL AIR INLET NODE_UNIT1_FRONTROW_BOTTOMFLOOR,Air,1
 Node,606,HEATING COIL AIR INLET NODE_UNIT1_FRONTROW_BOTTOMFLOOR,Air,1
 Node,607,COOLING COIL AIR INLET NODE_UNIT2_FRONTROW_BOTTOMFLOOR,Air,1
 Node,608,HEATING COIL AIR INLET NODE_UNIT2_FRONTROW_BOTTOMFLOOR,Air,1
 Node,609,COOLING COIL AIR INLET NODE_UNIT3_FRONTROW_BOTTOMFLOOR,Air,1
 Node,610,HEATING COIL AIR INLET NODE_UNIT3_FRONTROW_BOTTOMFLOOR,Air,1
 Node,611,COOLING COIL AIR INLET NODE_UNIT1_BACKROW_BOTTOMFLOOR,Air,1
 Node,612,HEATING COIL AIR INLET NODE_UNIT1_BACKROW_BOTTOMFLOOR,Air,1
 Node,613,COOLING COIL AIR INLET NODE_UNIT2_BACKROW_BOTTOMFLOOR,Air,1
 Node,614,HEATING COIL AIR INLET NODE_UNIT2_BACKROW_BOTTOMFLOOR,Air,1
 Node,615,COOLING COIL AIR INLET NODE_UNIT3_BACKROW_BOTTOMFLOOR,Air,1
 Node,616,HEATING COIL AIR INLET NODE_UNIT3_BACKROW_BOTTOMFLOOR,Air,1
 Node,617,COOLING COIL AIR INLET NODE_UNIT1_FRONTROW_MIDDLEFLOOR,Air,1
 Node,618,HEATING COIL AIR INLET NODE_UNIT1_FRONTROW_MIDDLEFLOOR,Air,1
 Node,619,COOLING COIL AIR INLET NODE_UNIT2_FRONTROW_MIDDLEFLOOR,Air,1
 Node,620,HEATING COIL AIR INLET NODE_UNIT2_FRONTROW_MIDDLEFLOOR,Air,1
 Node,621,COOLING COIL AIR INLET NODE_UNIT3_FRONTROW_MIDDLEFLOOR,Air,1
 Node,622,HEATING COIL AIR INLET NODE_UNIT3_FRONTROW_MIDDLEFLOOR,Air,1
 Node,623,COOLING COIL AIR INLET NODE_UNIT1_BACKROW_MIDDLEFLOOR,Air,1
 Node,624,HEATING COIL AIR INLET NODE_UNIT1_BACKROW_MIDDLEFLOOR,Air,1
 Node,625,COOLING COIL AIR INLET NODE_UNIT2_BACKROW_MIDDLEFLOOR,Air,1
 Node,626,HEATING COIL AIR INLET NODE_UNIT2_BACKROW_MIDDLEFLOOR,Air,1
 Node,627,COOLING COIL AIR INLET NODE_UNIT3_BACKROW_MIDDLEFLOOR,Air,1
 Node,628,HEATING COIL AIR INLET NODE_UNIT3_BACKROW_MIDDLEFLOOR,Air,1
 Node,629,COOLING COIL AIR INLET NODE_UNIT1_FRONTROW_TOPFLOOR,Air,1
 Node,630,HEATING COIL AIR INLET NODE_UNIT1_FRONTROW_TOPFLOOR,Air,1
 Node,631,COOLING COIL AIR INLET NODE_UNIT2_FRONTROW_TOPFLOOR,Air,1
 Node,632,HEATING COIL AIR INLET NODE_UNIT2_FRONTROW_TOPFLOOR,Air,1
 Node,633,COOLING COIL AIR INLET NODE_UNIT3_FRONTROW_TOPFLOOR,Air,1
 Node,634,HEATING COIL AIR INLET NODE_UNIT3_FRONTROW_TOPFLOOR,Air,1
 Node,635,COOLING COIL AIR INLET NODE_UNIT1_BACKROW_TOPFLOOR,Air,1
 Node,636,HEATING COIL AIR INLET NODE_UNIT1_BACKROW_TOPFLOOR,Air,1
 Node,637,COOLING COIL AIR INLET NODE_UNIT2_BACKROW_TOPFLOOR,Air,1
 Node,638,HEATING COIL AIR INLET NODE_UNIT2_BACKROW_TOPFLOOR,Air,1
 Node,639,COOLING COIL AIR INLET NODE_UNIT3_BACKROW_TOPFLOOR,Air,1
 Node,640,HEATING COIL AIR INLET NODE_UNIT3_BACKROW_TOPFLOOR,Air,1
 Node,641,HEAT PUMP WATER HEATER FAN INLET NODE_UNIT1_FRONTROW_BOTTOMFLOOR,Air,1
 Node,642,OUTDOOR AIR NODE_UNIT1_FRONTROW_BOTTOMFLOOR,Air,2
 Node,643,OUTDOOR AIR NODE_UNIT2_FRONTROW_BOTTOMFLOOR,Air,2
 Node,644,OUTDOOR AIR NODE_UNIT3_FRONTROW_BOTTOMFLOOR,Air,2
 Node,645,OUTDOOR AIR NODE_UNIT1_BACKROW_BOTTOMFLOOR,Air,2
 Node,646,OUTDOOR AIR NODE_UNIT2_BACKROW_BOTTOMFLOOR,Air,2
 Node,647,OUTDOOR AIR NODE_UNIT3_BACKROW_BOTTOMFLOOR,Air,2
 Node,648,OUTDOOR AIR NODE_UNIT1_FRONTROW_MIDDLEFLOOR,Air,2
 Node,649,OUTDOOR AIR NODE_UNIT2_FRONTROW_MIDDLEFLOOR,Air,2
 Node,650,OUTDOOR AIR NODE_UNIT3_FRONTROW_MIDDLEFLOOR,Air,2
 Node,651,OUTDOOR AIR NODE_UNIT1_BACKROW_MIDDLEFLOOR,Air,2
 Node,652,OUTDOOR AIR NODE_UNIT2_BACKROW_MIDDLEFLOOR,Air,2
 Node,653,OUTDOOR AIR NODE_UNIT3_BACKROW_MIDDLEFLOOR,Air,2
 Node,654,OUTDOOR AIR NODE_UNIT1_FRONTROW_TOPFLOOR,Air,2
 Node,655,OUTDOOR AIR NODE_UNIT2_FRONTROW_TOPFLOOR,Air,2
 Node,656,OUTDOOR AIR NODE_UNIT3_FRONTROW_TOPFLOOR,Air,2
 Node,657,OUTDOOR AIR NODE_UNIT1_BACKROW_TOPFLOOR,Air,2
 Node,658,OUTDOOR AIR NODE_UNIT2_BACKROW_TOPFLOOR,Air,2
 Node,659,OUTDOOR AIR NODE_UNIT3_BACKROW_TOPFLOOR,Air,2
 Node,660,OUTSIDE AIR INLET NODE_UNIT1_FRONTROW_BOTTOMFLOOR,Air,0
 Node,661,OUTSIDE AIR INLET NODE_UNIT2_FRONTROW_BOTTOMFLOOR,Air,0
 Node,662,OUTSIDE AIR INLET NODE_UNIT3_FRONTROW_BOTTOMFLOOR,Air,0
 Node,663,OUTSIDE AIR INLET NODE_UNIT1_BACKROW_BOTTOMFLOOR,Air,0
 Node,664,OUTSIDE AIR INLET NODE_UNIT2_BACKROW_BOTTOMFLOOR,Air,0
 Node,665,OUTSIDE AIR INLET NODE_UNIT3_BACKROW_BOTTOMFLOOR,Air,0
 Node,666,OUTSIDE AIR INLET NODE_UNIT1_FRONTROW_MIDDLEFLOOR,Air,0
 Node,667,OUTSIDE AIR INLET NODE_UNIT2_FRONTROW_MIDDLEFLOOR,Air,0
 Node,668,OUTSIDE AIR INLET NODE_UNIT3_FRONTROW_MIDDLEFLOOR,Air,0
 Node,669,OUTSIDE AIR INLET NODE_UNIT1_BACKROW_MIDDLEFLOOR,Air,0
 Node,670,OUTSIDE AIR INLET NODE_UNIT2_BACKROW_MIDDLEFLOOR,Air,0
 Node,671,OUTSIDE AIR INLET NODE_UNIT3_BACKROW_MIDDLEFLOOR,Air,0
 Node,672,OUTSIDE AIR INLET NODE_UNIT1_FRONTROW_TOPFLOOR,Air,0
 Node,673,OUTSIDE AIR INLET NODE_UNIT2_FRONTROW_TOPFLOOR,Air,0
 Node,674,OUTSIDE AIR INLET NODE_UNIT3_FRONTROW_TOPFLOOR,Air,0
 Node,675,OUTSIDE AIR INLET NODE_UNIT1_BACKROW_TOPFLOOR,Air,0
 Node,676,OUTSIDE AIR INLET NODE_UNIT2_BACKROW_TOPFLOOR,Air,0
 Node,677,OUTSIDE AIR INLET NODE_UNIT3_BACKROW_TOPFLOOR,Air,0
 Node,678,DUMMY CONDENSER INLET HEAT PUMP WATER HEATER EVAPORATOR_UNIT1_FRONTROW_BOTTOMFLOOR,Water,2
 Node,679,DUMMY CONDENSER OUTLET HEAT PUMP WATER HEATER EVAPORATOR_UNIT1_FRONTROW_BOTTOMFLOOR,Water,2
 Node,680,HEAT PUMP WATER HEATER FAN INLET NODE_UNIT2_FRONTROW_BOTTOMFLOOR,Air,1
 Node,681,DUMMY CONDENSER INLET HEAT PUMP WATER HEATER EVAPORATOR_UNIT2_FRONTROW_BOTTOMFLOOR,Water,2
 Node,682,DUMMY CONDENSER OUTLET HEAT PUMP WATER HEATER EVAPORATOR_UNIT2_FRONTROW_BOTTOMFLOOR,Water,2
 Node,683,HEAT PUMP WATER HEATER FAN INLET NODE_UNIT3_FRONTROW_BOTTOMFLOOR,Air,1
 Node,684,DUMMY CONDENSER INLET HEAT PUMP WATER HEATER EVAPORATOR_UNIT3_FRONTROW_BOTTOMFLOOR,Water,2
 Node,685,DUMMY CONDENSER OUTLET HEAT PUMP WATER HEATER EVAPORATOR_UNIT3_FRONTROW_BOTTOMFLOOR,Water,2
 Node,686,HEAT PUMP WATER HEATER FAN INLET NODE_UNIT1_BACKROW_BOTTOMFLOOR,Air,1
 Node,687,DUMMY CONDENSER INLET HEAT PUMP WATER HEATER EVAPORATOR_UNIT1_BACKROW_BOTTOMFLOOR,Water,2
 Node,688,DUMMY CONDENSER OUTLET HEAT PUMP WATER HEATER EVAPORATOR_UNIT1_BACKROW_BOTTOMFLOOR,Water,2
 Node,689,HEAT PUMP WATER HEATER FAN INLET NODE_UNIT2_BACKROW_BOTTOMFLOOR,Air,1
 Node,690,DUMMY CONDENSER INLET HEAT PUMP WATER HEATER EVAPORATOR_UNIT2_BACKROW_BOTTOMFLOOR,Water,2
 Node,691,DUMMY CONDENSER OUTLET HEAT PUMP WATER HEATER EVAPORATOR_UNIT2_BACKROW_BOTTOMFLOOR,Water,2
 Node,692,HEAT PUMP WATER HEATER FAN INLET NODE_UNIT3_BACKROW_BOTTOMFLOOR,Air,1
 Node,693,DUMMY CONDENSER INLET HEAT PUMP WATER HEATER EVAPORATOR_UNIT3_BACKROW_BOTTOMFLOOR,Water,2
 Node,694,DUMMY CONDENSER OUTLET HEAT PUMP WATER HEATER EVAPORATOR_UNIT3_BACKROW_BOTTOMFLOOR,Water,2
 Node,695,HEAT PUMP WATER HEATER FAN INLET NODE_UNIT1_FRONTROW_MIDDLEFLOOR,Air,1
 Node,696,DUMMY CONDENSER INLET HEAT PUMP WATER HEATER EVAPORATOR_UNIT1_FRONTROW_MIDDLEFLOOR,Water,2
 Node,697,DUMMY CONDENSER OUTLET HEAT PUMP WATER HEATER EVAPORATOR_UNIT1_FRONTROW_MIDDLEFLOOR,Water,2
 Node,698,HEAT PUMP WATER HEATER FAN INLET NODE_UNIT2_FRONTROW_MIDDLEFLOOR,Air,1
 Node,699,DUMMY CONDENSER INLET HEAT PUMP WATER HEATER EVAPORATOR_UNIT2_FRONTROW_MIDDLEFLOOR,Water,2
 Node,700,DUMMY CONDENSER OUTLET HEAT PUMP WATER HEATER EVAPORATOR_UNIT2_FRONTROW_MIDDLEFLOOR,Water,2
 Node,701,HEAT PUMP WATER HEATER FAN INLET NODE_UNIT3_FRONTROW_MIDDLEFLOOR,Air,1
 Node,702,DUMMY CONDENSER INLET HEAT PUMP WATER HEATER EVAPORATOR_UNIT3_FRONTROW_MIDDLEFLOOR,Water,2
 Node,703,DUMMY CONDENSER OUTLET HEAT PUMP WATER HEATER EVAPORATOR_UNIT3_FRONTROW_MIDDLEFLOOR,Water,2
 Node,704,HEAT PUMP WATER HEATER FAN INLET NODE_UNIT1_BACKROW_MIDDLEFLOOR,Air,1
 Node,705,DUMMY CONDENSER INLET HEAT PUMP WATER HEATER EVAPORATOR_UNIT1_BACKROW_MIDDLEFLOOR,Water,2
 Node,706,DUMMY CONDENSER OUTLET HEAT PUMP WATER HEATER EVAPORATOR_UNIT1_BACKROW_MIDDLEFLOOR,Water,2
 Node,707,HEAT PUMP WATER HEATER FAN INLET NODE_UNIT2_BACKROW_MIDDLEFLOOR,Air,1
 Node,708,DUMMY CONDENSER INLET HEAT PUMP WATER HEATER EVAPORATOR_UNIT2_BACKROW_MIDDLEFLOOR,Water,2
 Node,709,DUMMY CONDENSER OUTLET HEAT PUMP WATER HEATER EVAPORATOR_UNIT2_BACKROW_MIDDLEFLOOR,Water,2
 Node,710,HEAT PUMP WATER HEATER FAN INLET NODE_UNIT3_BACKROW_MIDDLEFLOOR,Air,1
 Node,711,DUMMY CONDENSER INLET HEAT PUMP WATER HEATER EVAPORATOR_UNIT3_BACKROW_MIDDLEFLOOR,Water,2
 Node,712,DUMMY CONDENSER OUTLET HEAT PUMP WATER HEATER EVAPORATOR_UNIT3_BACKROW_MIDDLEFLOOR,Water,2
 Node,713,HEAT PUMP WATER HEATER FAN INLET NODE_UNIT1_FRONTROW_TOPFLOOR,Air,1
 Node,714,DUMMY CONDENSER INLET HEAT PUMP WATER HEATER EVAPORATOR_UNIT1_FRONTROW_TOPFLOOR,Water,2
 Node,715,DUMMY CONDENSER OUTLET HEAT PUMP WATER HEATER EVAPORATOR_UNIT1_FRONTROW_TOPFLOOR,Water,2
 Node,716,HEAT PUMP WATER HEATER FAN INLET NODE_UNIT2_FRONTROW_TOPFLOOR,Air,1
 Node,717,DUMMY CONDENSER INLET HEAT PUMP WATER HEATER EVAPORATOR_UNIT2_FRONTROW_TOPFLOOR,Water,2
 Node,718,DUMMY CONDENSER OUTLET HEAT PUMP WATER HEATER EVAPORATOR_UNIT2_FRONTROW_TOPFLOOR,Water,2
 Node,719,HEAT PUMP WATER HEATER FAN INLET NODE_UNIT3_FRONTROW_TOPFLOOR,Air,1
 Node,720,DUMMY CONDENSER INLET HEAT PUMP WATER HEATER EVAPORATOR_UNIT3_FRONTROW_TOPFLOOR,Water,2
 Node,721,DUMMY CONDENSER OUTLET HEAT PUMP WATER HEATER EVAPORATOR_UNIT3_FRONTROW_TOPFLOOR,Water,2
 Node,722,HEAT PUMP WATER HEATER FAN INLET NODE_UNIT1_BACKROW_TOPFLOOR,Air,1
 Node,723,DUMMY CONDENSER INLET HEAT PUMP WATER HEATER EVAPORATOR_UNIT1_BACKROW_TOPFLOOR,Water,2
 Node,724,DUMMY CONDENSER OUTLET HEAT PUMP WATER HEATER EVAPORATOR_UNIT1_BACKROW_TOPFLOOR,Water,2
 Node,725,HEAT PUMP WATER HEATER FAN INLET NODE_UNIT2_BACKROW_TOPFLOOR,Air,1
 Node,726,DUMMY CONDENSER INLET HEAT PUMP WATER HEATER EVAPORATOR_UNIT2_BACKROW_TOPFLOOR,Water,2
 Node,727,DUMMY CONDENSER OUTLET HEAT PUMP WATER HEATER EVAPORATOR_UNIT2_BACKROW_TOPFLOOR,Water,2
 Node,728,HEAT PUMP WATER HEATER FAN INLET NODE_UNIT3_BACKROW_TOPFLOOR,Air,1
 Node,729,DUMMY CONDENSER INLET HEAT PUMP WATER HEATER EVAPORATOR_UNIT3_BACKROW_TOPFLOOR,Water,2
 Node,730,DUMMY CONDENSER OUTLET HEAT PUMP WATER HEATER EVAPORATOR_UNIT3_BACKROW_TOPFLOOR,Water,2
 Node,731,OA FAN INLET NODE_UNIT1_FRONTROW_BOTTOMFLOOR,Air,1
 Node,732,ERVEXHAUSTNODE_UNIT1_FRONTROW_BOTTOMFLOOR,Air,1
 Node,733,EXHAUST OUTLET NODE_UNIT1_FRONTROW_BOTTOMFLOOR,Air,1
 Node,734,OA FAN INLET NODE_UNIT2_FRONTROW_BOTTOMFLOOR,Air,1
 Node,735,ERVEXHAUSTNODE_UNIT2_FRONTROW_BOTTOMFLOOR,Air,1
 Node,736,EXHAUST OUTLET NODE_UNIT2_FRONTROW_BOTTOMFLOOR,Air,1
 Node,737,OA FAN INLET NODE_UNIT3_FRONTROW_BOTTOMFLOOR,Air,1
 Node,738,ERVEXHAUSTNODE_UNIT3_FRONTROW_BOTTOMFLOOR,Air,1
 Node,739,EXHAUST OUTLET NODE_UNIT3_FRONTROW_BOTTOMFLOOR,Air,1
 Node,740,OA FAN INLET NODE_UNIT1_BACKROW_BOTTOMFLOOR,Air,1
 Node,741,ERVEXHAUSTNODE_UNIT1_BACKROW_BOTTOMFLOOR,Air,1
 Node,742,EXHAUST OUTLET NODE_UNIT1_BACKROW_BOTTOMFLOOR,Air,1
 Node,743,OA FAN INLET NODE_UNIT2_BACKROW_BOTTOMFLOOR,Air,1
 Node,744,ERVEXHAUSTNODE_UNIT2_BACKROW_BOTTOMFLOOR,Air,1
 Node,745,EXHAUST OUTLET NODE_UNIT2_BACKROW_BOTTOMFLOOR,Air,1
 Node,746,OA FAN INLET NODE_UNIT3_BACKROW_BOTTOMFLOOR,Air,1
 Node,747,ERVEXHAUSTNODE_UNIT3_BACKROW_BOTTOMFLOOR,Air,1
 Node,748,EXHAUST OUTLET NODE_UNIT3_BACKROW_BOTTOMFLOOR,Air,1
 Node,749,OA FAN INLET NODE_UNIT1_FRONTROW_MIDDLEFLOOR,Air,1
 Node,750,ERVEXHAUSTNODE_UNIT1_FRONTROW_MIDDLEFLOOR,Air,1
 Node,751,EXHAUST OUTLET NODE_UNIT1_FRONTROW_MIDDLEFLOOR,Air,1
 Node,752,OA FAN INLET NODE_UNIT2_FRONTROW_MIDDLEFLOOR,Air,1
 Node,753,ERVEXHAUSTNODE_UNIT2_FRONTROW_MIDDLEFLOOR,Air,1
 Node,754,EXHAUST OUTLET NODE_UNIT2_FRONTROW_MIDDLEFLOOR,Air,1
 Node,755,OA FAN INLET NODE_UNIT3_FRONTROW_MIDDLEFLOOR,Air,1
 Node,756,ERVEXHAUSTNODE_UNIT3_FRONTROW_MIDDLEFLOOR,Air,1
 Node,757,EXHAUST OUTLET NODE_UNIT3_FRONTROW_MIDDLEFLOOR,Air,1
 Node,758,OA FAN INLET NODE_UNIT1_BACKROW_MIDDLEFLOOR,Air,1
 Node,759,ERVEXHAUSTNODE_UNIT1_BACKROW_MIDDLEFLOOR,Air,1
 Node,760,EXHAUST OUTLET NODE_UNIT1_BACKROW_MIDDLEFLOOR,Air,1
 Node,761,OA FAN INLET NODE_UNIT2_BACKROW_MIDDLEFLOOR,Air,1
 Node,762,ERVEXHAUSTNODE_UNIT2_BACKROW_MIDDLEFLOOR,Air,1
 Node,763,EXHAUST OUTLET NODE_UNIT2_BACKROW_MIDDLEFLOOR,Air,1
 Node,764,OA FAN INLET NODE_UNIT3_BACKROW_MIDDLEFLOOR,Air,1
 Node,765,ERVEXHAUSTNODE_UNIT3_BACKROW_MIDDLEFLOOR,Air,1
 Node,766,EXHAUST OUTLET NODE_UNIT3_BACKROW_MIDDLEFLOOR,Air,1
 Node,767,OA FAN INLET NODE_UNIT1_FRONTROW_TOPFLOOR,Air,1
 Node,768,ERVEXHAUSTNODE_UNIT1_FRONTROW_TOPFLOOR,Air,1
 Node,769,EXHAUST OUTLET NODE_UNIT1_FRONTROW_TOPFLOOR,Air,1
 Node,770,OA FAN INLET NODE_UNIT2_FRONTROW_TOPFLOOR,Air,1
 Node,771,ERVEXHAUSTNODE_UNIT2_FRONTROW_TOPFLOOR,Air,1
 Node,772,EXHAUST OUTLET NODE_UNIT2_FRONTROW_TOPFLOOR,Air,1
 Node,773,OA FAN INLET NODE_UNIT3_FRONTROW_TOPFLOOR,Air,1
 Node,774,ERVEXHAUSTNODE_UNIT3_FRONTROW_TOPFLOOR,Air,1
 Node,775,EXHAUST OUTLET NODE_UNIT3_FRONTROW_TOPFLOOR,Air,1
 Node,776,OA FAN INLET NODE_UNIT1_BACKROW_TOPFLOOR,Air,1
 Node,777,ERVEXHAUSTNODE_UNIT1_BACKROW_TOPFLOOR,Air,1
 Node,778,EXHAUST OUTLET NODE_UNIT1_BACKROW_TOPFLOOR,Air,1
 Node,779,OA FAN INLET NODE_UNIT2_BACKROW_TOPFLOOR,Air,1
 Node,780,ERVEXHAUSTNODE_UNIT2_BACKROW_TOPFLOOR,Air,1
 Node,781,EXHAUST OUTLET NODE_UNIT2_BACKROW_TOPFLOOR,Air,1
 Node,782,OA FAN INLET NODE_UNIT3_BACKROW_TOPFLOOR,Air,1
 Node,783,ERVEXHAUSTNODE_UNIT3_BACKROW_TOPFLOOR,Air,1
 Node,784,EXHAUST OUTLET NODE_UNIT3_BACKROW_TOPFLOOR,Air,1
 Node,785,ZONE INLET NODE_UNIT1_FRONTROW_BOTTOMFLOOR ATINLET,Air,1
 Node,786,ZONE INLET NODE_UNIT2_FRONTROW_BOTTOMFLOOR ATINLET,Air,1
 Node,787,ZONE INLET NODE_UNIT3_FRONTROW_BOTTOMFLOOR ATINLET,Air,1
 Node,788,ZONE INLET NODE_UNIT1_BACKROW_BOTTOMFLOOR ATINLET,Air,1
 Node,789,ZONE INLET NODE_UNIT2_BACKROW_BOTTOMFLOOR ATINLET,Air,1
 Node,790,ZONE INLET NODE_UNIT3_BACKROW_BOTTOMFLOOR ATINLET,Air,1
 Node,791,ZONE INLET NODE_UNIT1_FRONTROW_MIDDLEFLOOR ATINLET,Air,1
 Node,792,ZONE INLET NODE_UNIT2_FRONTROW_MIDDLEFLOOR ATINLET,Air,1
 Node,793,ZONE INLET NODE_UNIT3_FRONTROW_MIDDLEFLOOR ATINLET,Air,1
 Node,794,ZONE INLET NODE_UNIT1_BACKROW_MIDDLEFLOOR ATINLET,Air,1
 Node,795,ZONE INLET NODE_UNIT2_BACKROW_MIDDLEFLOOR ATINLET,Air,1
 Node,796,ZONE INLET NODE_UNIT3_BACKROW_MIDDLEFLOOR ATINLET,Air,1
 Node,797,ZONE INLET NODE_UNIT1_FRONTROW_TOPFLOOR ATINLET,Air,1
 Node,798,ZONE INLET NODE_UNIT2_FRONTROW_TOPFLOOR ATINLET,Air,1
 Node,799,ZONE INLET NODE_UNIT3_FRONTROW_TOPFLOOR ATINLET,Air,1
 Node,800,ZONE INLET NODE_UNIT1_BACKROW_TOPFLOOR ATINLET,Air,1
 Node,801,ZONE INLET NODE_UNIT2_BACKROW_TOPFLOOR ATINLET,Air,1
 Node,802,ZONE INLET NODE_UNIT3_BACKROW_TOPFLOOR ATINLET,Air,1
! ===============================================================
! Suspicious nodes have 0 references.  It is normal for some nodes, however.
! Listing nodes with 0 references (culled from previous list):
! <Suspicious Node>,<NodeNumber>,<Node Name>,<Node Fluid Type>,<# Times Node Referenced After Definition>
 Suspicious Node,533,ZONE NODE_UNIT1_FRONTROW_BOTTOMFLOOR,Air,0
 Suspicious Node,535,ZONE NODE_UNIT2_FRONTROW_BOTTOMFLOOR,Air,0
 Suspicious Node,537,ZONE NODE_UNIT3_FRONTROW_BOTTOMFLOOR,Air,0
 Suspicious Node,539,ZONE NODE_UNIT1_BACKROW_BOTTOMFLOOR,Air,0
 Suspicious Node,541,ZONE NODE_UNIT2_BACKROW_BOTTOMFLOOR,Air,0
 Suspicious Node,543,ZONE NODE_UNIT3_BACKROW_BOTTOMFLOOR,Air,0
 Suspicious Node,545,ZONE NODE_UNIT1_FRONTROW_MIDDLEFLOOR,Air,0
 Suspicious Node,547,ZONE NODE_UNIT2_FRONTROW_MIDDLEFLOOR,Air,0
 Suspicious Node,549,ZONE NODE_UNIT3_FRONTROW_MIDDLEFLOOR,Air,0
 Suspicious Node,551,ZONE NODE_UNIT1_BACKROW_MIDDLEFLOOR,Air,0
 Suspicious Node,553,ZONE NODE_UNIT2_BACKROW_MIDDLEFLOOR,Air,0
 Suspicious Node,555,ZONE NODE_UNIT3_BACKROW_MIDDLEFLOOR,Air,0
 Suspicious Node,557,ZONE NODE_UNIT1_FRONTROW_TOPFLOOR,Air,0
 Suspicious Node,559,ZONE NODE_UNIT2_FRONTROW_TOPFLOOR,Air,0
 Suspicious Node,561,ZONE NODE_UNIT3_FRONTROW_TOPFLOOR,Air,0
 Suspicious Node,563,ZONE NODE_UNIT1_BACKROW_TOPFLOOR,Air,0
 Suspicious Node,565,ZONE NODE_UNIT2_BACKROW_TOPFLOOR,Air,0
 Suspicious Node,567,ZONE NODE_UNIT3_BACKROW_TOPFLOOR,Air,0
 Suspicious Node,660,OUTSIDE AIR INLET NODE_UNIT1_FRONTROW_BOTTOMFLOOR,Air,0
 Suspicious Node,661,OUTSIDE AIR INLET NODE_UNIT2_FRONTROW_BOTTOMFLOOR,Air,0
 Suspicious Node,662,OUTSIDE AIR INLET NODE_UNIT3_FRONTROW_BOTTOMFLOOR,Air,0
 Suspicious Node,663,OUTSIDE AIR INLET NODE_UNIT1_BACKROW_BOTTOMFLOOR,Air,0
 Suspicious Node,664,OUTSIDE AIR INLET NODE_UNIT2_BACKROW_BOTTOMFLOOR,Air,0
 Suspicious Node,665,OUTSIDE AIR INLET NODE_UNIT3_BACKROW_BOTTOMFLOOR,Air,0
 Suspicious Node,666,OUTSIDE AIR INLET NODE_UNIT1_FRONTROW_MIDDLEFLOOR,Air,0
 Suspicious Node,667,OUTSIDE AIR INLET NODE_UNIT2_FRONTROW_MIDDLEFLOOR,Air,0
 Suspicious Node,668,OUTSIDE AIR INLET NODE_UNIT3_FRONTROW_MIDDLEFLOOR,Air,0
 Suspicious Node,669,OUTSIDE AIR INLET NODE_UNIT1_BACKROW_MIDDLEFLOOR,Air,0
 Suspicious Node,670,OUTSIDE AIR INLET NODE_UNIT2_BACKROW_MIDDLEFLOOR,Air,0
 Suspicious Node,671,OUTSIDE AIR INLET NODE_UNIT3_BACKROW_MIDDLEFLOOR,Air,0
 Suspicious Node,672,OUTSIDE AIR INLET NODE_UNIT1_FRONTROW_TOPFLOOR,Air,0
 Suspicious Node,673,OUTSIDE AIR INLET NODE_UNIT2_FRONTROW_TOPFLOOR,Air,0
 Suspicious Node,674,OUTSIDE AIR INLET NODE_UNIT3_FRONTROW_TOPFLOOR,Air,0
 Suspicious Node,675,OUTSIDE AIR INLET NODE_UNIT1_BACKROW_TOPFLOOR,Air,0
 Suspicious Node,676,OUTSIDE AIR INLET NODE_UNIT2_BACKROW_TOPFLOOR,Air,0
 Suspicious Node,677,OUTSIDE AIR INLET NODE_UNIT3_BACKROW_TOPFLOOR,Air,0
! ===============================================================
! <#Branch Lists>,<Number of Branch Lists>
 #Branch Lists,56
! <Branch List>,<Branch List Count>,<Branch List Name>,<Loop Name>,<Loop Type>,<Number of Branches>
! <Branch>,<Branch Count>,<Branch Name>,<Loop Name>,<Loop Type>,<Branch Inlet Node Name>,<Branch Outlet Node Name>
 Branch List,1,AIR LOOP BRANCHES_UNIT1_FRONTROW_BOTTOMFLOOR,CENTRAL SYSTEM_UNIT1_FRONTROW_BOTTOMFLOOR,Air,1
   Branch,1,AIR LOOP MAIN BRANCH_UNIT1_FRONTROW_BOTTOMFLOOR,CENTRAL SYSTEM_UNIT1_FRONTROW_BOTTOMFLOOR,Air,AIR LOOP INLET NODE_UNIT1_FRONTROW_BOTTOMFLOOR,AIR LOOP OUTLET NODE_UNIT1_FRONTROW_BOTTOMFLOOR
 Branch List,2,AIR LOOP BRANCHES_UNIT2_FRONTROW_BOTTOMFLOOR,CENTRAL SYSTEM_UNIT2_FRONTROW_BOTTOMFLOOR,Air,1
   Branch,1,AIR LOOP MAIN BRANCH_UNIT2_FRONTROW_BOTTOMFLOOR,CENTRAL SYSTEM_UNIT2_FRONTROW_BOTTOMFLOOR,Air,AIR LOOP INLET NODE_UNIT2_FRONTROW_BOTTOMFLOOR,AIR LOOP OUTLET NODE_UNIT2_FRONTROW_BOTTOMFLOOR
 Branch List,3,AIR LOOP BRANCHES_UNIT3_FRONTROW_BOTTOMFLOOR,CENTRAL SYSTEM_UNIT3_FRONTROW_BOTTOMFLOOR,Air,1
   Branch,1,AIR LOOP MAIN BRANCH_UNIT3_FRONTROW_BOTTOMFLOOR,CENTRAL SYSTEM_UNIT3_FRONTROW_BOTTOMFLOOR,Air,AIR LOOP INLET NODE_UNIT3_FRONTROW_BOTTOMFLOOR,AIR LOOP OUTLET NODE_UNIT3_FRONTROW_BOTTOMFLOOR
 Branch List,4,AIR LOOP BRANCHES_UNIT1_BACKROW_BOTTOMFLOOR,CENTRAL SYSTEM_UNIT1_BACKROW_BOTTOMFLOOR,Air,1
   Branch,1,AIR LOOP MAIN BRANCH_UNIT1_BACKROW_BOTTOMFLOOR,CENTRAL SYSTEM_UNIT1_BACKROW_BOTTOMFLOOR,Air,AIR LOOP INLET NODE_UNIT1_BACKROW_BOTTOMFLOOR,AIR LOOP OUTLET NODE_UNIT1_BACKROW_BOTTOMFLOOR
 Branch List,5,AIR LOOP BRANCHES_UNIT2_BACKROW_BOTTOMFLOOR,CENTRAL SYSTEM_UNIT2_BACKROW_BOTTOMFLOOR,Air,1
   Branch,1,AIR LOOP MAIN BRANCH_UNIT2_BACKROW_BOTTOMFLOOR,CENTRAL SYSTEM_UNIT2_BACKROW_BOTTOMFLOOR,Air,AIR LOOP INLET NODE_UNIT2_BACKROW_BOTTOMFLOOR,AIR LOOP OUTLET NODE_UNIT2_BACKROW_BOTTOMFLOOR
 Branch List,6,AIR LOOP BRANCHES_UNIT3_BACKROW_BOTTOMFLOOR,CENTRAL SYSTEM_UNIT3_BACKROW_BOTTOMFLOOR,Air,1
   Branch,1,AIR LOOP MAIN BRANCH_UNIT3_BACKROW_BOTTOMFLOOR,CENTRAL SYSTEM_UNIT3_BACKROW_BOTTOMFLOOR,Air,AIR LOOP INLET NODE_UNIT3_BACKROW_BOTTOMFLOOR,AIR LOOP OUTLET NODE_UNIT3_BACKROW_BOTTOMFLOOR
 Branch List,7,AIR LOOP BRANCHES_UNIT1_FRONTROW_MIDDLEFLOOR,CENTRAL SYSTEM_UNIT1_FRONTROW_MIDDLEFLOOR,Air,1
   Branch,1,AIR LOOP MAIN BRANCH_UNIT1_FRONTROW_MIDDLEFLOOR,CENTRAL SYSTEM_UNIT1_FRONTROW_MIDDLEFLOOR,Air,AIR LOOP INLET NODE_UNIT1_FRONTROW_MIDDLEFLOOR,AIR LOOP OUTLET NODE_UNIT1_FRONTROW_MIDDLEFLOOR
 Branch List,8,AIR LOOP BRANCHES_UNIT2_FRONTROW_MIDDLEFLOOR,CENTRAL SYSTEM_UNIT2_FRONTROW_MIDDLEFLOOR,Air,1
   Branch,1,AIR LOOP MAIN BRANCH_UNIT2_FRONTROW_MIDDLEFLOOR,CENTRAL SYSTEM_UNIT2_FRONTROW_MIDDLEFLOOR,Air,AIR LOOP INLET NODE_UNIT2_FRONTROW_MIDDLEFLOOR,AIR LOOP OUTLET NODE_UNIT2_FRONTROW_MIDDLEFLOOR
 Branch List,9,AIR LOOP BRANCHES_UNIT3_FRONTROW_MIDDLEFLOOR,CENTRAL SYSTEM_UNIT3_FRONTROW_MIDDLEFLOOR,Air,1
   Branch,1,AIR LOOP MAIN BRANCH_UNIT3_FRONTROW_MIDDLEFLOOR,CENTRAL SYSTEM_UNIT3_FRONTROW_MIDDLEFLOOR,Air,AIR LOOP INLET NODE_UNIT3_FRONTROW_MIDDLEFLOOR,AIR LOOP OUTLET NODE_UNIT3_FRONTROW_MIDDLEFLOOR
 Branch List,10,AIR LOOP BRANCHES_UNIT1_BACKROW_MIDDLEFLOOR,CENTRAL SYSTEM_UNIT1_BACKROW_MIDDLEFLOOR,Air,1
   Branch,1,AIR LOOP MAIN BRANCH_UNIT1_BACKROW_MIDDLEFLOOR,CENTRAL SYSTEM_UNIT1_BACKROW_MIDDLEFLOOR,Air,AIR LOOP INLET NODE_UNIT1_BACKROW_MIDDLEFLOOR,AIR LOOP OUTLET NODE_UNIT1_BACKROW_MIDDLEFLOOR
 Branch List,11,AIR LOOP BRANCHES_UNIT2_BACKROW_MIDDLEFLOOR,CENTRAL SYSTEM_UNIT2_BACKROW_MIDDLEFLOOR,Air,1
   Branch,1,AIR LOOP MAIN BRANCH_UNIT2_BACKROW_MIDDLEFLOOR,CENTRAL SYSTEM_UNIT2_BACKROW_MIDDLEFLOOR,Air,AIR LOOP INLET NODE_UNIT2_BACKROW_MIDDLEFLOOR,AIR LOOP OUTLET NODE_UNIT2_BACKROW_MIDDLEFLOOR
 Branch List,12,AIR LOOP BRANCHES_UNIT3_BACKROW_MIDDLEFLOOR,CENTRAL SYSTEM_UNIT3_BACKROW_MIDDLEFLOOR,Air,1
   Branch,1,AIR LOOP MAIN BRANCH_UNIT3_BACKROW_MIDDLEFLOOR,CENTRAL SYSTEM_UNIT3_BACKROW_MIDDLEFLOOR,Air,AIR LOOP INLET NODE_UNIT3_BACKROW_MIDDLEFLOOR,AIR LOOP OUTLET NODE_UNIT3_BACKROW_MIDDLEFLOOR
 Branch List,13,AIR LOOP BRANCHES_UNIT1_FRONTROW_TOPFLOOR,CENTRAL SYSTEM_UNIT1_FRONTROW_TOPFLOOR,Air,1
   Branch,1,AIR LOOP MAIN BRANCH_UNIT1_FRONTROW_TOPFLOOR,CENTRAL SYSTEM_UNIT1_FRONTROW_TOPFLOOR,Air,AIR LOOP INLET NODE_UNIT1_FRONTROW_TOPFLOOR,AIR LOOP OUTLET NODE_UNIT1_FRONTROW_TOPFLOOR
 Branch List,14,AIR LOOP BRANCHES_UNIT2_FRONTROW_TOPFLOOR,CENTRAL SYSTEM_UNIT2_FRONTROW_TOPFLOOR,Air,1
   Branch,1,AIR LOOP MAIN BRANCH_UNIT2_FRONTROW_TOPFLOOR,CENTRAL SYSTEM_UNIT2_FRONTROW_TOPFLOOR,Air,AIR LOOP INLET NODE_UNIT2_FRONTROW_TOPFLOOR,AIR LOOP OUTLET NODE_UNIT2_FRONTROW_TOPFLOOR
 Branch List,15,AIR LOOP BRANCHES_UNIT3_FRONTROW_TOPFLOOR,CENTRAL SYSTEM_UNIT3_FRONTROW_TOPFLOOR,Air,1
   Branch,1,AIR LOOP MAIN BRANCH_UNIT3_FRONTROW_TOPFLOOR,CENTRAL SYSTEM_UNIT3_FRONTROW_TOPFLOOR,Air,AIR LOOP INLET NODE_UNIT3_FRONTROW_TOPFLOOR,AIR LOOP OUTLET NODE_UNIT3_FRONTROW_TOPFLOOR
 Branch List,16,AIR LOOP BRANCHES_UNIT1_BACKROW_TOPFLOOR,CENTRAL SYSTEM_UNIT1_BACKROW_TOPFLOOR,Air,1
   Branch,1,AIR LOOP MAIN BRANCH_UNIT1_BACKROW_TOPFLOOR,CENTRAL SYSTEM_UNIT1_BACKROW_TOPFLOOR,Air,AIR LOOP INLET NODE_UNIT1_BACKROW_TOPFLOOR,AIR LOOP OUTLET NODE_UNIT1_BACKROW_TOPFLOOR
 Branch List,17,AIR LOOP BRANCHES_UNIT2_BACKROW_TOPFLOOR,CENTRAL SYSTEM_UNIT2_BACKROW_TOPFLOOR,Air,1
   Branch,1,AIR LOOP MAIN BRANCH_UNIT2_BACKROW_TOPFLOOR,CENTRAL SYSTEM_UNIT2_BACKROW_TOPFLOOR,Air,AIR LOOP INLET NODE_UNIT2_BACKROW_TOPFLOOR,AIR LOOP OUTLET NODE_UNIT2_BACKROW_TOPFLOOR
 Branch List,18,AIR LOOP BRANCHES_UNIT3_BACKROW_TOPFLOOR,CENTRAL SYSTEM_UNIT3_BACKROW_TOPFLOOR,Air,1
   Branch,1,AIR LOOP MAIN BRANCH_UNIT3_BACKROW_TOPFLOOR,CENTRAL SYSTEM_UNIT3_BACKROW_TOPFLOOR,Air,AIR LOOP INLET NODE_UNIT3_BACKROW_TOPFLOOR,AIR LOOP OUTLET NODE_UNIT3_BACKROW_TOPFLOOR
 Branch List,19,HEATING DEMAND SIDE BRANCHES,BOILER LOOP,Plant Demand,20
   Branch,1,HEATING DEMAND INLET BRANCH,BOILER LOOP,Plant Demand,HW DEMAND INLET NODE,HW DEMAND ENTRANCE PIPE OUTLET NODE
   Branch,2,HEATING COIL BRANCH_UNIT1_FRONTROW_BOTTOMFLOOR,BOILER LOOP,Plant Demand,HEATING COIL WATER INLET NODE_UNIT1_FRONTROW_BOTTOMFLOOR,HEATING COIL WATER OUTLET NODE_UNIT1_FRONTROW_BOTTOMFLOOR
   Branch,3,HEATING COIL BRANCH_UNIT2_FRONTROW_BOTTOMFLOOR,BOILER LOOP,Plant Demand,HEATING COIL WATER INLET NODE_UNIT2_FRONTROW_BOTTOMFLOOR,HEATING COIL WATER OUTLET NODE_UNIT2_FRONTROW_BOTTOMFLOOR
   Branch,4,HEATING COIL BRANCH_UNIT3_FRONTROW_BOTTOMFLOOR,BOILER LOOP,Plant Demand,HEATING COIL WATER INLET NODE_UNIT3_FRONTROW_BOTTOMFLOOR,HEATING COIL WATER OUTLET NODE_UNIT3_FRONTROW_BOTTOMFLOOR
   Branch,5,HEATING COIL BRANCH_UNIT1_BACKROW_BOTTOMFLOOR,BOILER LOOP,Plant Demand,HEATING COIL WATER INLET NODE_UNIT1_BACKROW_BOTTOMFLOOR,HEATING COIL WATER OUTLET NODE_UNIT1_BACKROW_BOTTOMFLOOR
   Branch,6,HEATING COIL BRANCH_UNIT2_BACKROW_BOTTOMFLOOR,BOILER LOOP,Plant Demand,HEATING COIL WATER INLET NODE_UNIT2_BACKROW_BOTTOMFLOOR,HEATING COIL WATER OUTLET NODE_UNIT2_BACKROW_BOTTOMFLOOR
   Branch,7,HEATING COIL BRANCH_UNIT3_BACKROW_BOTTOMFLOOR,BOILER LOOP,Plant Demand,HEATING COIL WATER INLET NODE_UNIT3_BACKROW_BOTTOMFLOOR,HEATING COIL WATER OUTLET NODE_UNIT3_BACKROW_BOTTOMFLOOR
   Branch,8,HEATING COIL BRANCH_UNIT1_FRONTROW_MIDDLEFLOOR,BOILER LOOP,Plant Demand,HEATING COIL WATER INLET NODE_UNIT1_FRONTROW_MIDDLEFLOOR,HEATING COIL WATER OUTLET NODE_UNIT1_FRONTROW_MIDDLEFLOOR
   Branch,9,HEATING COIL BRANCH_UNIT2_FRONTROW_MIDDLEFLOOR,BOILER LOOP,Plant Demand,HEATING COIL WATER INLET NODE_UNIT2_FRONTROW_MIDDLEFLOOR,HEATING COIL WATER OUTLET NODE_UNIT2_FRONTROW_MIDDLEFLOOR
   Branch,10,HEATING COIL BRANCH_UNIT3_FRONTROW_MIDDLEFLOOR,BOILER LOOP,Plant Demand,HEATING COIL WATER INLET NODE_UNIT3_FRONTROW_MIDDLEFLOOR,HEATING COIL WATER OUTLET NODE_UNIT3_FRONTROW_MIDDLEFLOOR
   Branch,11,HEATING COIL BRANCH_UNIT1_BACKROW_MIDDLEFLOOR,BOILER LOOP,Plant Demand,HEATING COIL WATER INLET NODE_UNIT1_BACKROW_MIDDLEFLOOR,HEATING COIL WATER OUTLET NODE_UNIT1_BACKROW_MIDDLEFLOOR
   Branch,12,HEATING COIL BRANCH_UNIT2_BACKROW_MIDDLEFLOOR,BOILER LOOP,Plant Demand,HEATING COIL WATER INLET NODE_UNIT2_BACKROW_MIDDLEFLOOR,HEATING COIL WATER OUTLET NODE_UNIT2_BACKROW_MIDDLEFLOOR
   Branch,13,HEATING COIL BRANCH_UNIT3_BACKROW_MIDDLEFLOOR,BOILER LOOP,Plant Demand,HEATING COIL WATER INLET NODE_UNIT3_BACKROW_MIDDLEFLOOR,HEATING COIL WATER OUTLET NODE_UNIT3_BACKROW_MIDDLEFLOOR
   Branch,14,HEATING COIL BRANCH_UNIT1_FRONTROW_TOPFLOOR,BOILER LOOP,Plant Demand,HEATING COIL WATER INLET NODE_UNIT1_FRONTROW_TOPFLOOR,HEATING COIL WATER OUTLET NODE_UNIT1_FRONTROW_TOPFLOOR
   Branch,15,HEATING COIL BRANCH_UNIT2_FRONTROW_TOPFLOOR,BOILER LOOP,Plant Demand,HEATING COIL WATER INLET NODE_UNIT2_FRONTROW_TOPFLOOR,HEATING COIL WATER OUTLET NODE_UNIT2_FRONTROW_TOPFLOOR
   Branch,16,HEATING COIL BRANCH_UNIT3_FRONTROW_TOPFLOOR,BOILER LOOP,Plant Demand,HEATING COIL WATER INLET NODE_UNIT3_FRONTROW_TOPFLOOR,HEATING COIL WATER OUTLET NODE_UNIT3_FRONTROW_TOPFLOOR
   Branch,17,HEATING COIL BRANCH_UNIT1_BACKROW_TOPFLOOR,BOILER LOOP,Plant Demand,HEATING COIL WATER INLET NODE_UNIT1_BACKROW_TOPFLOOR,HEATING COIL WATER OUTLET NODE_UNIT1_BACKROW_TOPFLOOR
   Branch,18,HEATING COIL BRANCH_UNIT2_BACKROW_TOPFLOOR,BOILER LOOP,Plant Demand,HEATING COIL WATER INLET NODE_UNIT2_BACKROW_TOPFLOOR,HEATING COIL WATER OUTLET NODE_UNIT2_BACKROW_TOPFLOOR
   Branch,19,HEATING COIL BRANCH_UNIT3_BACKROW_TOPFLOOR,BOILER LOOP,Plant Demand,HEATING COIL WATER INLET NODE_UNIT3_BACKROW_TOPFLOOR,HEATING COIL WATER OUTLET NODE_UNIT3_BACKROW_TOPFLOOR
   Branch,20,HEATING DEMAND OUTLET BRANCH,BOILER LOOP,Plant Demand,HW DEMAND EXIT PIPE INLET NODE,HW DEMAND OUTLET NODE
 Branch List,20,HEATING SUPPLY SIDE BRANCHES,BOILER LOOP,Plant Supply,3
   Branch,1,HEATING SUPPLY INLET BRANCH,BOILER LOOP,Plant Supply,HW SUPPLY INLET NODE,HW PUMP OUTLET NODE
   Branch,2,CENTRAL BOILER BRANCH,BOILER LOOP,Plant Supply,CENTRAL BOILER INLET NODE,CENTRAL BOILER OUTLET NODE
   Branch,3,HEATING SUPPLY OUTLET BRANCH,BOILER LOOP,Plant Supply,HW SUPPLY EXIT PIPE INLET NODE,HW SUPPLY OUTLET NODE
 Branch List,21,DHW SUPPLY BRANCHES_UNIT1_FRONTROW_BOTTOMFLOOR,DHW LOOP_UNIT1_FRONTROW_BOTTOMFLOOR,Plant Supply,3
   Branch,1,MAINS INLET BRANCH_UNIT1_FRONTROW_BOTTOMFLOOR,DHW LOOP_UNIT1_FRONTROW_BOTTOMFLOOR,Plant Supply,MAINS INLET NODE_UNIT1_FRONTROW_BOTTOMFLOOR,MAINS PRESSURE OUTLET NODE_UNIT1_FRONTROW_BOTTOMFLOOR
   Branch,2,WATER HEATER BRANCH_UNIT1_FRONTROW_BOTTOMFLOOR,DHW LOOP_UNIT1_FRONTROW_BOTTOMFLOOR,Plant Supply,WATER HEATER USE INLET NODE_UNIT1_FRONTROW_BOTTOMFLOOR,WATER HEATER USE OUTLET NODE_UNIT1_FRONTROW_BOTTOMFLOOR
   Branch,3,DHW SUPPLY OUTLET BRANCH_UNIT1_FRONTROW_BOTTOMFLOOR,DHW LOOP_UNIT1_FRONTROW_BOTTOMFLOOR,Plant Supply,DHW SUPPLY OUTLET PIPE INLET NODE_UNIT1_FRONTROW_BOTTOMFLOOR,DHW SUPPLY OUTLET NODE_UNIT1_FRONTROW_BOTTOMFLOOR
 Branch List,22,DHW DEMAND BRANCHES_UNIT1_FRONTROW_BOTTOMFLOOR,DHW LOOP_UNIT1_FRONTROW_BOTTOMFLOOR,Plant Demand,7
   Branch,1,DHW DEMAND INLET BRANCH_UNIT1_FRONTROW_BOTTOMFLOOR,DHW LOOP_UNIT1_FRONTROW_BOTTOMFLOOR,Plant Demand,DHW DEMAND INLET NODE_UNIT1_FRONTROW_BOTTOMFLOOR,DHW DEMAND INLET PIPE OUTLET NODE_UNIT1_FRONTROW_BOTTOMFLOOR
   Branch,2,WATER SINK BRANCH_UNIT1_FRONTROW_BOTTOMFLOOR,DHW LOOP_UNIT1_FRONTROW_BOTTOMFLOOR,Plant Demand,WATER SINK INLET NODE_UNIT1_FRONTROW_BOTTOMFLOOR,WATER SINK OUTLET NODE_UNIT1_FRONTROW_BOTTOMFLOOR
   Branch,3,WATER SHOWER BRANCH_UNIT1_FRONTROW_BOTTOMFLOOR,DHW LOOP_UNIT1_FRONTROW_BOTTOMFLOOR,Plant Demand,WATER SHOWER INLET NODE_UNIT1_FRONTROW_BOTTOMFLOOR,WATER SHOWER OUTLET NODE_UNIT1_FRONTROW_BOTTOMFLOOR
   Branch,4,WATER CLOTHESWASHER BRANCH_UNIT1_FRONTROW_BOTTOMFLOOR,DHW LOOP_UNIT1_FRONTROW_BOTTOMFLOOR,Plant Demand,WATER CLOTHESWASHER INLET NODE_UNIT1_FRONTROW_BOTTOMFLOOR,WATER CLOTHESWASHER OUTLET NODE_UNIT1_FRONTROW_BOTTOMFLOOR
   Branch,5,WATER DISHWASHER BRANCH_UNIT1_FRONTROW_BOTTOMFLOOR,DHW LOOP_UNIT1_FRONTROW_BOTTOMFLOOR,Plant Demand,WATER DISHWASHER INLET NODE_UNIT1_FRONTROW_BOTTOMFLOOR,WATER DISHWASHER OUTLET NODE_UNIT1_FRONTROW_BOTTOMFLOOR
   Branch,6,WATER BATH BRANCH_UNIT1_FRONTROW_BOTTOMFLOOR,DHW LOOP_UNIT1_FRONTROW_BOTTOMFLOOR,Plant Demand,WATER BATH INLET NODE_UNIT1_FRONTROW_BOTTOMFLOOR,WATER BATH OUTLET NODE_UNIT1_FRONTROW_BOTTOMFLOOR
   Branch,7,MAINS MAKEUP BRANCH_UNIT1_FRONTROW_BOTTOMFLOOR,DHW LOOP_UNIT1_FRONTROW_BOTTOMFLOOR,Plant Demand,MAINS MAKEUP PIPE INLET NODE_UNIT1_FRONTROW_BOTTOMFLOOR,MAINS MAKEUP NODE_UNIT1_FRONTROW_BOTTOMFLOOR
 Branch List,23,DHW SUPPLY BRANCHES_UNIT2_FRONTROW_BOTTOMFLOOR,DHW LOOP_UNIT2_FRONTROW_BOTTOMFLOOR,Plant Supply,3
   Branch,1,MAINS INLET BRANCH_UNIT2_FRONTROW_BOTTOMFLOOR,DHW LOOP_UNIT2_FRONTROW_BOTTOMFLOOR,Plant Supply,MAINS INLET NODE_UNIT2_FRONTROW_BOTTOMFLOOR,MAINS PRESSURE OUTLET NODE_UNIT2_FRONTROW_BOTTOMFLOOR
   Branch,2,WATER HEATER BRANCH_UNIT2_FRONTROW_BOTTOMFLOOR,DHW LOOP_UNIT2_FRONTROW_BOTTOMFLOOR,Plant Supply,WATER HEATER USE INLET NODE_UNIT2_FRONTROW_BOTTOMFLOOR,WATER HEATER USE OUTLET NODE_UNIT2_FRONTROW_BOTTOMFLOOR
   Branch,3,DHW SUPPLY OUTLET BRANCH_UNIT2_FRONTROW_BOTTOMFLOOR,DHW LOOP_UNIT2_FRONTROW_BOTTOMFLOOR,Plant Supply,DHW SUPPLY OUTLET PIPE INLET NODE_UNIT2_FRONTROW_BOTTOMFLOOR,DHW SUPPLY OUTLET NODE_UNIT2_FRONTROW_BOTTOMFLOOR
 Branch List,24,DHW DEMAND BRANCHES_UNIT2_FRONTROW_BOTTOMFLOOR,DHW LOOP_UNIT2_FRONTROW_BOTTOMFLOOR,Plant Demand,7
   Branch,1,DHW DEMAND INLET BRANCH_UNIT2_FRONTROW_BOTTOMFLOOR,DHW LOOP_UNIT2_FRONTROW_BOTTOMFLOOR,Plant Demand,DHW DEMAND INLET NODE_UNIT2_FRONTROW_BOTTOMFLOOR,DHW DEMAND INLET PIPE OUTLET NODE_UNIT2_FRONTROW_BOTTOMFLOOR
   Branch,2,WATER SINK BRANCH_UNIT2_FRONTROW_BOTTOMFLOOR,DHW LOOP_UNIT2_FRONTROW_BOTTOMFLOOR,Plant Demand,WATER SINK INLET NODE_UNIT2_FRONTROW_BOTTOMFLOOR,WATER SINK OUTLET NODE_UNIT2_FRONTROW_BOTTOMFLOOR
   Branch,3,WATER SHOWER BRANCH_UNIT2_FRONTROW_BOTTOMFLOOR,DHW LOOP_UNIT2_FRONTROW_BOTTOMFLOOR,Plant Demand,WATER SHOWER INLET NODE_UNIT2_FRONTROW_BOTTOMFLOOR,WATER SHOWER OUTLET NODE_UNIT2_FRONTROW_BOTTOMFLOOR
   Branch,4,WATER CLOTHESWASHER BRANCH_UNIT2_FRONTROW_BOTTOMFLOOR,DHW LOOP_UNIT2_FRONTROW_BOTTOMFLOOR,Plant Demand,WATER CLOTHESWASHER INLET NODE_UNIT2_FRONTROW_BOTTOMFLOOR,WATER CLOTHESWASHER OUTLET NODE_UNIT2_FRONTROW_BOTTOMFLOOR
   Branch,5,WATER DISHWASHER BRANCH_UNIT2_FRONTROW_BOTTOMFLOOR,DHW LOOP_UNIT2_FRONTROW_BOTTOMFLOOR,Plant Demand,WATER DISHWASHER INLET NODE_UNIT2_FRONTROW_BOTTOMFLOOR,WATER DISHWASHER OUTLET NODE_UNIT2_FRONTROW_BOTTOMFLOOR
   Branch,6,WATER BATH BRANCH_UNIT2_FRONTROW_BOTTOMFLOOR,DHW LOOP_UNIT2_FRONTROW_BOTTOMFLOOR,Plant Demand,WATER BATH INLET NODE_UNIT2_FRONTROW_BOTTOMFLOOR,WATER BATH OUTLET NODE_UNIT2_FRONTROW_BOTTOMFLOOR
   Branch,7,MAINS MAKEUP BRANCH_UNIT2_FRONTROW_BOTTOMFLOOR,DHW LOOP_UNIT2_FRONTROW_BOTTOMFLOOR,Plant Demand,MAINS MAKEUP PIPE INLET NODE_UNIT2_FRONTROW_BOTTOMFLOOR,MAINS MAKEUP NODE_UNIT2_FRONTROW_BOTTOMFLOOR
 Branch List,25,DHW SUPPLY BRANCHES_UNIT3_FRONTROW_BOTTOMFLOOR,DHW LOOP_UNIT3_FRONTROW_BOTTOMFLOOR,Plant Supply,3
   Branch,1,MAINS INLET BRANCH_UNIT3_FRONTROW_BOTTOMFLOOR,DHW LOOP_UNIT3_FRONTROW_BOTTOMFLOOR,Plant Supply,MAINS INLET NODE_UNIT3_FRONTROW_BOTTOMFLOOR,MAINS PRESSURE OUTLET NODE_UNIT3_FRONTROW_BOTTOMFLOOR
   Branch,2,WATER HEATER BRANCH_UNIT3_FRONTROW_BOTTOMFLOOR,DHW LOOP_UNIT3_FRONTROW_BOTTOMFLOOR,Plant Supply,WATER HEATER USE INLET NODE_UNIT3_FRONTROW_BOTTOMFLOOR,WATER HEATER USE OUTLET NODE_UNIT3_FRONTROW_BOTTOMFLOOR
   Branch,3,DHW SUPPLY OUTLET BRANCH_UNIT3_FRONTROW_BOTTOMFLOOR,DHW LOOP_UNIT3_FRONTROW_BOTTOMFLOOR,Plant Supply,DHW SUPPLY OUTLET PIPE INLET NODE_UNIT3_FRONTROW_BOTTOMFLOOR,DHW SUPPLY OUTLET NODE_UNIT3_FRONTROW_BOTTOMFLOOR
 Branch List,26,DHW DEMAND BRANCHES_UNIT3_FRONTROW_BOTTOMFLOOR,DHW LOOP_UNIT3_FRONTROW_BOTTOMFLOOR,Plant Demand,7
   Branch,1,DHW DEMAND INLET BRANCH_UNIT3_FRONTROW_BOTTOMFLOOR,DHW LOOP_UNIT3_FRONTROW_BOTTOMFLOOR,Plant Demand,DHW DEMAND INLET NODE_UNIT3_FRONTROW_BOTTOMFLOOR,DHW DEMAND INLET PIPE OUTLET NODE_UNIT3_FRONTROW_BOTTOMFLOOR
   Branch,2,WATER SINK BRANCH_UNIT3_FRONTROW_BOTTOMFLOOR,DHW LOOP_UNIT3_FRONTROW_BOTTOMFLOOR,Plant Demand,WATER SINK INLET NODE_UNIT3_FRONTROW_BOTTOMFLOOR,WATER SINK OUTLET NODE_UNIT3_FRONTROW_BOTTOMFLOOR
   Branch,3,WATER SHOWER BRANCH_UNIT3_FRONTROW_BOTTOMFLOOR,DHW LOOP_UNIT3_FRONTROW_BOTTOMFLOOR,Plant Demand,WATER SHOWER INLET NODE_UNIT3_FRONTROW_BOTTOMFLOOR,WATER SHOWER OUTLET NODE_UNIT3_FRONTROW_BOTTOMFLOOR
   Branch,4,WATER CLOTHESWASHER BRANCH_UNIT3_FRONTROW_BOTTOMFLOOR,DHW LOOP_UNIT3_FRONTROW_BOTTOMFLOOR,Plant Demand,WATER CLOTHESWASHER INLET NODE_UNIT3_FRONTROW_BOTTOMFLOOR,WATER CLOTHESWASHER OUTLET NODE_UNIT3_FRONTROW_BOTTOMFLOOR
   Branch,5,WATER DISHWASHER BRANCH_UNIT3_FRONTROW_BOTTOMFLOOR,DHW LOOP_UNIT3_FRONTROW_BOTTOMFLOOR,Plant Demand,WATER DISHWASHER INLET NODE_UNIT3_FRONTROW_BOTTOMFLOOR,WATER DISHWASHER OUTLET NODE_UNIT3_FRONTROW_BOTTOMFLOOR
   Branch,6,WATER BATH BRANCH_UNIT3_FRONTROW_BOTTOMFLOOR,DHW LOOP_UNIT3_FRONTROW_BOTTOMFLOOR,Plant Demand,WATER BATH INLET NODE_UNIT3_FRONTROW_BOTTOMFLOOR,WATER BATH OUTLET NODE_UNIT3_FRONTROW_BOTTOMFLOOR
   Branch,7,MAINS MAKEUP BRANCH_UNIT3_FRONTROW_BOTTOMFLOOR,DHW LOOP_UNIT3_FRONTROW_BOTTOMFLOOR,Plant Demand,MAINS MAKEUP PIPE INLET NODE_UNIT3_FRONTROW_BOTTOMFLOOR,MAINS MAKEUP NODE_UNIT3_FRONTROW_BOTTOMFLOOR
 Branch List,27,DHW SUPPLY BRANCHES_UNIT1_BACKROW_BOTTOMFLOOR,DHW LOOP_UNIT1_BACKROW_BOTTOMFLOOR,Plant Supply,3
   Branch,1,MAINS INLET BRANCH_UNIT1_BACKROW_BOTTOMFLOOR,DHW LOOP_UNIT1_BACKROW_BOTTOMFLOOR,Plant Supply,MAINS INLET NODE_UNIT1_BACKROW_BOTTOMFLOOR,MAINS PRESSURE OUTLET NODE_UNIT1_BACKROW_BOTTOMFLOOR
   Branch,2,WATER HEATER BRANCH_UNIT1_BACKROW_BOTTOMFLOOR,DHW LOOP_UNIT1_BACKROW_BOTTOMFLOOR,Plant Supply,WATER HEATER USE INLET NODE_UNIT1_BACKROW_BOTTOMFLOOR,WATER HEATER USE OUTLET NODE_UNIT1_BACKROW_BOTTOMFLOOR
   Branch,3,DHW SUPPLY OUTLET BRANCH_UNIT1_BACKROW_BOTTOMFLOOR,DHW LOOP_UNIT1_BACKROW_BOTTOMFLOOR,Plant Supply,DHW SUPPLY OUTLET PIPE INLET NODE_UNIT1_BACKROW_BOTTOMFLOOR,DHW SUPPLY OUTLET NODE_UNIT1_BACKROW_BOTTOMFLOOR
 Branch List,28,DHW DEMAND BRANCHES_UNIT1_BACKROW_BOTTOMFLOOR,DHW LOOP_UNIT1_BACKROW_BOTTOMFLOOR,Plant Demand,7
   Branch,1,DHW DEMAND INLET BRANCH_UNIT1_BACKROW_BOTTOMFLOOR,DHW LOOP_UNIT1_BACKROW_BOTTOMFLOOR,Plant Demand,DHW DEMAND INLET NODE_UNIT1_BACKROW_BOTTOMFLOOR,DHW DEMAND INLET PIPE OUTLET NODE_UNIT1_BACKROW_BOTTOMFLOOR
   Branch,2,WATER SINK BRANCH_UNIT1_BACKROW_BOTTOMFLOOR,DHW LOOP_UNIT1_BACKROW_BOTTOMFLOOR,Plant Demand,WATER SINK INLET NODE_UNIT1_BACKROW_BOTTOMFLOOR,WATER SINK OUTLET NODE_UNIT1_BACKROW_BOTTOMFLOOR
   Branch,3,WATER SHOWER BRANCH_UNIT1_BACKROW_BOTTOMFLOOR,DHW LOOP_UNIT1_BACKROW_BOTTOMFLOOR,Plant Demand,WATER SHOWER INLET NODE_UNIT1_BACKROW_BOTTOMFLOOR,WATER SHOWER OUTLET NODE_UNIT1_BACKROW_BOTTOMFLOOR
   Branch,4,WATER CLOTHESWASHER BRANCH_UNIT1_BACKROW_BOTTOMFLOOR,DHW LOOP_UNIT1_BACKROW_BOTTOMFLOOR,Plant Demand,WATER CLOTHESWASHER INLET NODE_UNIT1_BACKROW_BOTTOMFLOOR,WATER CLOTHESWASHER OUTLET NODE_UNIT1_BACKROW_BOTTOMFLOOR
   Branch,5,WATER DISHWASHER BRANCH_UNIT1_BACKROW_BOTTOMFLOOR,DHW LOOP_UNIT1_BACKROW_BOTTOMFLOOR,Plant Demand,WATER DISHWASHER INLET NODE_UNIT1_BACKROW_BOTTOMFLOOR,WATER DISHWASHER OUTLET NODE_UNIT1_BACKROW_BOTTOMFLOOR
   Branch,6,WATER BATH BRANCH_UNIT1_BACKROW_BOTTOMFLOOR,DHW LOOP_UNIT1_BACKROW_BOTTOMFLOOR,Plant Demand,WATER BATH INLET NODE_UNIT1_BACKROW_BOTTOMFLOOR,WATER BATH OUTLET NODE_UNIT1_BACKROW_BOTTOMFLOOR
   Branch,7,MAINS MAKEUP BRANCH_UNIT1_BACKROW_BOTTOMFLOOR,DHW LOOP_UNIT1_BACKROW_BOTTOMFLOOR,Plant Demand,MAINS MAKEUP PIPE INLET NODE_UNIT1_BACKROW_BOTTOMFLOOR,MAINS MAKEUP NODE_UNIT1_BACKROW_BOTTOMFLOOR
 Branch List,29,DHW SUPPLY BRANCHES_UNIT2_BACKROW_BOTTOMFLOOR,DHW LOOP_UNIT2_BACKROW_BOTTOMFLOOR,Plant Supply,3
   Branch,1,MAINS INLET BRANCH_UNIT2_BACKROW_BOTTOMFLOOR,DHW LOOP_UNIT2_BACKROW_BOTTOMFLOOR,Plant Supply,MAINS INLET NODE_UNIT2_BACKROW_BOTTOMFLOOR,MAINS PRESSURE OUTLET NODE_UNIT2_BACKROW_BOTTOMFLOOR
   Branch,2,WATER HEATER BRANCH_UNIT2_BACKROW_BOTTOMFLOOR,DHW LOOP_UNIT2_BACKROW_BOTTOMFLOOR,Plant Supply,WATER HEATER USE INLET NODE_UNIT2_BACKROW_BOTTOMFLOOR,WATER HEATER USE OUTLET NODE_UNIT2_BACKROW_BOTTOMFLOOR
   Branch,3,DHW SUPPLY OUTLET BRANCH_UNIT2_BACKROW_BOTTOMFLOOR,DHW LOOP_UNIT2_BACKROW_BOTTOMFLOOR,Plant Supply,DHW SUPPLY OUTLET PIPE INLET NODE_UNIT2_BACKROW_BOTTOMFLOOR,DHW SUPPLY OUTLET NODE_UNIT2_BACKROW_BOTTOMFLOOR
 Branch List,30,DHW DEMAND BRANCHES_UNIT2_BACKROW_BOTTOMFLOOR,DHW LOOP_UNIT2_BACKROW_BOTTOMFLOOR,Plant Demand,7
   Branch,1,DHW DEMAND INLET BRANCH_UNIT2_BACKROW_BOTTOMFLOOR,DHW LOOP_UNIT2_BACKROW_BOTTOMFLOOR,Plant Demand,DHW DEMAND INLET NODE_UNIT2_BACKROW_BOTTOMFLOOR,DHW DEMAND INLET PIPE OUTLET NODE_UNIT2_BACKROW_BOTTOMFLOOR
   Branch,2,WATER SINK BRANCH_UNIT2_BACKROW_BOTTOMFLOOR,DHW LOOP_UNIT2_BACKROW_BOTTOMFLOOR,Plant Demand,WATER SINK INLET NODE_UNIT2_BACKROW_BOTTOMFLOOR,WATER SINK OUTLET NODE_UNIT2_BACKROW_BOTTOMFLOOR
   Branch,3,WATER SHOWER BRANCH_UNIT2_BACKROW_BOTTOMFLOOR,DHW LOOP_UNIT2_BACKROW_BOTTOMFLOOR,Plant Demand,WATER SHOWER INLET NODE_UNIT2_BACKROW_BOTTOMFLOOR,WATER SHOWER OUTLET NODE_UNIT2_BACKROW_BOTTOMFLOOR
   Branch,4,WATER CLOTHESWASHER BRANCH_UNIT2_BACKROW_BOTTOMFLOOR,DHW LOOP_UNIT2_BACKROW_BOTTOMFLOOR,Plant Demand,WATER CLOTHESWASHER INLET NODE_UNIT2_BACKROW_BOTTOMFLOOR,WATER CLOTHESWASHER OUTLET NODE_UNIT2_BACKROW_BOTTOMFLOOR
   Branch,5,WATER DISHWASHER BRANCH_UNIT2_BACKROW_BOTTOMFLOOR,DHW LOOP_UNIT2_BACKROW_BOTTOMFLOOR,Plant Demand,WATER DISHWASHER INLET NODE_UNIT2_BACKROW_BOTTOMFLOOR,WATER DISHWASHER OUTLET NODE_UNIT2_BACKROW_BOTTOMFLOOR
   Branch,6,WATER BATH BRANCH_UNIT2_BACKROW_BOTTOMFLOOR,DHW LOOP_UNIT2_BACKROW_BOTTOMFLOOR,Plant Demand,WATER BATH INLET NODE_UNIT2_BACKROW_BOTTOMFLOOR,WATER BATH OUTLET NODE_UNIT2_BACKROW_BOTTOMFLOOR
   Branch,7,MAINS MAKEUP BRANCH_UNIT2_BACKROW_BOTTOMFLOOR,DHW LOOP_UNIT2_BACKROW_BOTTOMFLOOR,Plant Demand,MAINS MAKEUP PIPE INLET NODE_UNIT2_BACKROW_BOTTOMFLOOR,MAINS MAKEUP NODE_UNIT2_BACKROW_BOTTOMFLOOR
 Branch List,31,DHW SUPPLY BRANCHES_UNIT3_BACKROW_BOTTOMFLOOR,DHW LOOP_UNIT3_BACKROW_BOTTOMFLOOR,Plant Supply,3
   Branch,1,MAINS INLET BRANCH_UNIT3_BACKROW_BOTTOMFLOOR,DHW LOOP_UNIT3_BACKROW_BOTTOMFLOOR,Plant Supply,MAINS INLET NODE_UNIT3_BACKROW_BOTTOMFLOOR,MAINS PRESSURE OUTLET NODE_UNIT3_BACKROW_BOTTOMFLOOR
   Branch,2,WATER HEATER BRANCH_UNIT3_BACKROW_BOTTOMFLOOR,DHW LOOP_UNIT3_BACKROW_BOTTOMFLOOR,Plant Supply,WATER HEATER USE INLET NODE_UNIT3_BACKROW_BOTTOMFLOOR,WATER HEATER USE OUTLET NODE_UNIT3_BACKROW_BOTTOMFLOOR
[...]
 Non-Parent Node Connection,ZONE OUTLET NODE_UNIT2_FRONTROW_MIDDLEFLOOR,AIRLOOPHVAC:ZONEMIXER,ZONE RETURN AIR MIXER_UNIT2_FRONTROW_MIDDLEFLOOR,Inlet,1
 Non-Parent Node Connection,RETURN AIR MIXER OUTLET_UNIT3_FRONTROW_MIDDLEFLOOR,AIRLOOPHVAC:ZONEMIXER,ZONE RETURN AIR MIXER_UNIT3_FRONTROW_MIDDLEFLOOR,Outlet,1
 Non-Parent Node Connection,ZONE OUTLET NODE_UNIT3_FRONTROW_MIDDLEFLOOR,AIRLOOPHVAC:ZONEMIXER,ZONE RETURN AIR MIXER_UNIT3_FRONTROW_MIDDLEFLOOR,Inlet,1
 Non-Parent Node Connection,RETURN AIR MIXER OUTLET_UNIT1_BACKROW_MIDDLEFLOOR,AIRLOOPHVAC:ZONEMIXER,ZONE RETURN AIR MIXER_UNIT1_BACKROW_MIDDLEFLOOR,Outlet,1
 Non-Parent Node Connection,ZONE OUTLET NODE_UNIT1_BACKROW_MIDDLEFLOOR,AIRLOOPHVAC:ZONEMIXER,ZONE RETURN AIR MIXER_UNIT1_BACKROW_MIDDLEFLOOR,Inlet,1
 Non-Parent Node Connection,RETURN AIR MIXER OUTLET_UNIT2_BACKROW_MIDDLEFLOOR,AIRLOOPHVAC:ZONEMIXER,ZONE RETURN AIR MIXER_UNIT2_BACKROW_MIDDLEFLOOR,Outlet,1
 Non-Parent Node Connection,ZONE OUTLET NODE_UNIT2_BACKROW_MIDDLEFLOOR,AIRLOOPHVAC:ZONEMIXER,ZONE RETURN AIR MIXER_UNIT2_BACKROW_MIDDLEFLOOR,Inlet,1
 Non-Parent Node Connection,RETURN AIR MIXER OUTLET_UNIT3_BACKROW_MIDDLEFLOOR,AIRLOOPHVAC:ZONEMIXER,ZONE RETURN AIR MIXER_UNIT3_BACKROW_MIDDLEFLOOR,Outlet,1
 Non-Parent Node Connection,ZONE OUTLET NODE_UNIT3_BACKROW_MIDDLEFLOOR,AIRLOOPHVAC:ZONEMIXER,ZONE RETURN AIR MIXER_UNIT3_BACKROW_MIDDLEFLOOR,Inlet,1
 Non-Parent Node Connection,RETURN AIR MIXER OUTLET_UNIT1_FRONTROW_TOPFLOOR,AIRLOOPHVAC:ZONEMIXER,ZONE RETURN AIR MIXER_UNIT1_FRONTROW_TOPFLOOR,Outlet,1
 Non-Parent Node Connection,ZONE OUTLET NODE_UNIT1_FRONTROW_TOPFLOOR,AIRLOOPHVAC:ZONEMIXER,ZONE RETURN AIR MIXER_UNIT1_FRONTROW_TOPFLOOR,Inlet,1
 Non-Parent Node Connection,RETURN AIR MIXER OUTLET_UNIT2_FRONTROW_TOPFLOOR,AIRLOOPHVAC:ZONEMIXER,ZONE RETURN AIR MIXER_UNIT2_FRONTROW_TOPFLOOR,Outlet,1
 Non-Parent Node Connection,ZONE OUTLET NODE_UNIT2_FRONTROW_TOPFLOOR,AIRLOOPHVAC:ZONEMIXER,ZONE RETURN AIR MIXER_UNIT2_FRONTROW_TOPFLOOR,Inlet,1
 Non-Parent Node Connection,RETURN AIR MIXER OUTLET_UNIT3_FRONTROW_TOPFLOOR,AIRLOOPHVAC:ZONEMIXER,ZONE RETURN AIR MIXER_UNIT3_FRONTROW_TOPFLOOR,Outlet,1
 Non-Parent Node Connection,ZONE OUTLET NODE_UNIT3_FRONTROW_TOPFLOOR,AIRLOOPHVAC:ZONEMIXER,ZONE RETURN AIR MIXER_UNIT3_FRONTROW_TOPFLOOR,Inlet,1
 Non-Parent Node Connection,RETURN AIR MIXER OUTLET_UNIT1_BACKROW_TOPFLOOR,AIRLOOPHVAC:ZONEMIXER,ZONE RETURN AIR MIXER_UNIT1_BACKROW_TOPFLOOR,Outlet,1
 Non-Parent Node Connection,ZONE OUTLET NODE_UNIT1_BACKROW_TOPFLOOR,AIRLOOPHVAC:ZONEMIXER,ZONE RETURN AIR MIXER_UNIT1_BACKROW_TOPFLOOR,Inlet,1
 Non-Parent Node Connection,RETURN AIR MIXER OUTLET_UNIT2_BACKROW_TOPFLOOR,AIRLOOPHVAC:ZONEMIXER,ZONE RETURN AIR MIXER_UNIT2_BACKROW_TOPFLOOR,Outlet,1
 Non-Parent Node Connection,ZONE OUTLET NODE_UNIT2_BACKROW_TOPFLOOR,AIRLOOPHVAC:ZONEMIXER,ZONE RETURN AIR MIXER_UNIT2_BACKROW_TOPFLOOR,Inlet,1
 Non-Parent Node Connection,RETURN AIR MIXER OUTLET_UNIT3_BACKROW_TOPFLOOR,AIRLOOPHVAC:ZONEMIXER,ZONE RETURN AIR MIXER_UNIT3_BACKROW_TOPFLOOR,Outlet,1
 Non-Parent Node Connection,ZONE OUTLET NODE_UNIT3_BACKROW_TOPFLOOR,AIRLOOPHVAC:ZONEMIXER,ZONE RETURN AIR MIXER_UNIT3_BACKROW_TOPFLOOR,Inlet,1
 Non-Parent Node Connection,HEATING COIL WATER INLET NODE_UNIT1_FRONTROW_BOTTOMFLOOR,COIL:HEATING:WATER,MAIN WATER HEATING COIL_UNIT1_FRONTROW_BOTTOMFLOOR,Inlet,2
 Non-Parent Node Connection,HEATING COIL WATER OUTLET NODE_UNIT1_FRONTROW_BOTTOMFLOOR,COIL:HEATING:WATER,MAIN WATER HEATING COIL_UNIT1_FRONTROW_BOTTOMFLOOR,Outlet,2
 Non-Parent Node Connection,HEATING COIL AIR INLET NODE_UNIT1_FRONTROW_BOTTOMFLOOR,COIL:HEATING:WATER,MAIN WATER HEATING COIL_UNIT1_FRONTROW_BOTTOMFLOOR,Inlet,1
 Non-Parent Node Connection,AIR LOOP OUTLET NODE_UNIT1_FRONTROW_BOTTOMFLOOR,COIL:HEATING:WATER,MAIN WATER HEATING COIL_UNIT1_FRONTROW_BOTTOMFLOOR,Outlet,1
 Non-Parent Node Connection,HEATING COIL WATER INLET NODE_UNIT2_FRONTROW_BOTTOMFLOOR,COIL:HEATING:WATER,MAIN WATER HEATING COIL_UNIT2_FRONTROW_BOTTOMFLOOR,Inlet,2
 Non-Parent Node Connection,HEATING COIL WATER OUTLET NODE_UNIT2_FRONTROW_BOTTOMFLOOR,COIL:HEATING:WATER,MAIN WATER HEATING COIL_UNIT2_FRONTROW_BOTTOMFLOOR,Outlet,2
 Non-Parent Node Connection,HEATING COIL AIR INLET NODE_UNIT2_FRONTROW_BOTTOMFLOOR,COIL:HEATING:WATER,MAIN WATER HEATING COIL_UNIT2_FRONTROW_BOTTOMFLOOR,Inlet,1
 Non-Parent Node Connection,AIR LOOP OUTLET NODE_UNIT2_FRONTROW_BOTTOMFLOOR,COIL:HEATING:WATER,MAIN WATER HEATING COIL_UNIT2_FRONTROW_BOTTOMFLOOR,Outlet,1
 Non-Parent Node Connection,HEATING COIL WATER INLET NODE_UNIT3_FRONTROW_BOTTOMFLOOR,COIL:HEATING:WATER,MAIN WATER HEATING COIL_UNIT3_FRONTROW_BOTTOMFLOOR,Inlet,2
 Non-Parent Node Connection,HEATING COIL WATER OUTLET NODE_UNIT3_FRONTROW_BOTTOMFLOOR,COIL:HEATING:WATER,MAIN WATER HEATING COIL_UNIT3_FRONTROW_BOTTOMFLOOR,Outlet,2
 Non-Parent Node Connection,HEATING COIL AIR INLET NODE_UNIT3_FRONTROW_BOTTOMFLOOR,COIL:HEATING:WATER,MAIN WATER HEATING COIL_UNIT3_FRONTROW_BOTTOMFLOOR,Inlet,1
 Non-Parent Node Connection,AIR LOOP OUTLET NODE_UNIT3_FRONTROW_BOTTOMFLOOR,COIL:HEATING:WATER,MAIN WATER HEATING COIL_UNIT3_FRONTROW_BOTTOMFLOOR,Outlet,1
 Non-Parent Node Connection,HEATING COIL WATER INLET NODE_UNIT1_BACKROW_BOTTOMFLOOR,COIL:HEATING:WATER,MAIN WATER HEATING COIL_UNIT1_BACKROW_BOTTOMFLOOR,Inlet,2
 Non-Parent Node Connection,HEATING COIL WATER OUTLET NODE_UNIT1_BACKROW_BOTTOMFLOOR,COIL:HEATING:WATER,MAIN WATER HEATING COIL_UNIT1_BACKROW_BOTTOMFLOOR,Outlet,2
 Non-Parent Node Connection,HEATING COIL AIR INLET NODE_UNIT1_BACKROW_BOTTOMFLOOR,COIL:HEATING:WATER,MAIN WATER HEATING COIL_UNIT1_BACKROW_BOTTOMFLOOR,Inlet,1
 Non-Parent Node Connection,AIR LOOP OUTLET NODE_UNIT1_BACKROW_BOTTOMFLOOR,COIL:HEATING:WATER,MAIN WATER HEATING COIL_UNIT1_BACKROW_BOTTOMFLOOR,Outlet,1
 Non-Parent Node Connection,HEATING COIL WATER INLET NODE_UNIT2_BACKROW_BOTTOMFLOOR,COIL:HEATING:WATER,MAIN WATER HEATING COIL_UNIT2_BACKROW_BOTTOMFLOOR,Inlet,2
 Non-Parent Node Connection,HEATING COIL WATER OUTLET NODE_UNIT2_BACKROW_BOTTOMFLOOR,COIL:HEATING:WATER,MAIN WATER HEATING COIL_UNIT2_BACKROW_BOTTOMFLOOR,Outlet,2
 Non-Parent Node Connection,HEATING COIL AIR INLET NODE_UNIT2_BACKROW_BOTTOMFLOOR,COIL:HEATING:WATER,MAIN WATER HEATING COIL_UNIT2_BACKROW_BOTTOMFLOOR,Inlet,1
 Non-Parent Node Connection,AIR LOOP OUTLET NODE_UNIT2_BACKROW_BOTTOMFLOOR,COIL:HEATING:WATER,MAIN WATER HEATING COIL_UNIT2_BACKROW_BOTTOMFLOOR,Outlet,1
 Non-Parent Node Connection,HEATING COIL WATER INLET NODE_UNIT3_BACKROW_BOTTOMFLOOR,COIL:HEATING:WATER,MAIN WATER HEATING COIL_UNIT3_BACKROW_BOTTOMFLOOR,Inlet,2
 Non-Parent Node Connection,HEATING COIL WATER OUTLET NODE_UNIT3_BACKROW_BOTTOMFLOOR,COIL:HEATING:WATER,MAIN WATER HEATING COIL_UNIT3_BACKROW_BOTTOMFLOOR,Outlet,2
 Non-Parent Node Connection,HEATING COIL AIR INLET NODE_UNIT3_BACKROW_BOTTOMFLOOR,COIL:HEATING:WATER,MAIN WATER HEATING COIL_UNIT3_BACKROW_BOTTOMFLOOR,Inlet,1
 Non-Parent Node Connection,AIR LOOP OUTLET NODE_UNIT3_BACKROW_BOTTOMFLOOR,COIL:HEATING:WATER,MAIN WATER HEATING COIL_UNIT3_BACKROW_BOTTOMFLOOR,Outlet,1
 Non-Parent Node Connection,HEATING COIL WATER INLET NODE_UNIT1_FRONTROW_MIDDLEFLOOR,COIL:HEATING:WATER,MAIN WATER HEATING COIL_UNIT1_FRONTROW_MIDDLEFLOOR,Inlet,2
 Non-Parent Node Connection,HEATING COIL WATER OUTLET NODE_UNIT1_FRONTROW_MIDDLEFLOOR,COIL:HEATING:WATER,MAIN WATER HEATING COIL_UNIT1_FRONTROW_MIDDLEFLOOR,Outlet,2
 Non-Parent Node Connection,HEATING COIL AIR INLET NODE_UNIT1_FRONTROW_MIDDLEFLOOR,COIL:HEATING:WATER,MAIN WATER HEATING COIL_UNIT1_FRONTROW_MIDDLEFLOOR,Inlet,1
 Non-Parent Node Connection,AIR LOOP OUTLET NODE_UNIT1_FRONTROW_MIDDLEFLOOR,COIL:HEATING:WATER,MAIN WATER HEATING COIL_UNIT1_FRONTROW_MIDDLEFLOOR,Outlet,1
 Non-Parent Node Connection,HEATING COIL WATER INLET NODE_UNIT2_FRONTROW_MIDDLEFLOOR,COIL:HEATING:WATER,MAIN WATER HEATING COIL_UNIT2_FRONTROW_MIDDLEFLOOR,Inlet,2
 Non-Parent Node Connection,HEATING COIL WATER OUTLET NODE_UNIT2_FRONTROW_MIDDLEFLOOR,COIL:HEATING:WATER,MAIN WATER HEATING COIL_UNIT2_FRONTROW_MIDDLEFLOOR,Outlet,2
 Non-Parent Node Connection,HEATING COIL AIR INLET NODE_UNIT2_FRONTROW_MIDDLEFLOOR,COIL:HEATING:WATER,MAIN WATER HEATING COIL_UNIT2_FRONTROW_MIDDLEFLOOR,Inlet,1
 Non-Parent Node Connection,AIR LOOP OUTLET NODE_UNIT2_FRONTROW_MIDDLEFLOOR,COIL:HEATING:WATER,MAIN WATER HEATING COIL_UNIT2_FRONTROW_MIDDLEFLOOR,Outlet,1
 Non-Parent Node Connection,HEATING COIL WATER INLET NODE_UNIT3_FRONTROW_MIDDLEFLOOR,COIL:HEATING:WATER,MAIN WATER HEATING COIL_UNIT3_FRONTROW_MIDDLEFLOOR,Inlet,2
 Non-Parent Node Connection,HEATING COIL WATER OUTLET NODE_UNIT3_FRONTROW_MIDDLEFLOOR,COIL:HEATING:WATER,MAIN WATER HEATING COIL_UNIT3_FRONTROW_MIDDLEFLOOR,Outlet,2
 Non-Parent Node Connection,HEATING COIL AIR INLET NODE_UNIT3_FRONTROW_MIDDLEFLOOR,COIL:HEATING:WATER,MAIN WATER HEATING COIL_UNIT3_FRONTROW_MIDDLEFLOOR,Inlet,1
 Non-Parent Node Connection,AIR LOOP OUTLET NODE_UNIT3_FRONTROW_MIDDLEFLOOR,COIL:HEATING:WATER,MAIN WATER HEATING COIL_UNIT3_FRONTROW_MIDDLEFLOOR,Outlet,1
 Non-Parent Node Connection,HEATING COIL WATER INLET NODE_UNIT1_BACKROW_MIDDLEFLOOR,COIL:HEATING:WATER,MAIN WATER HEATING COIL_UNIT1_BACKROW_MIDDLEFLOOR,Inlet,2
 Non-Parent Node Connection,HEATING COIL WATER OUTLET NODE_UNIT1_BACKROW_MIDDLEFLOOR,COIL:HEATING:WATER,MAIN WATER HEATING COIL_UNIT1_BACKROW_MIDDLEFLOOR,Outlet,2
 Non-Parent Node Connection,HEATING COIL AIR INLET NODE_UNIT1_BACKROW_MIDDLEFLOOR,COIL:HEATING:WATER,MAIN WATER HEATING COIL_UNIT1_BACKROW_MIDDLEFLOOR,Inlet,1
 Non-Parent Node Connection,AIR LOOP OUTLET NODE_UNIT1_BACKROW_MIDDLEFLOOR,COIL:HEATING:WATER,MAIN WATER HEATING COIL_UNIT1_BACKROW_MIDDLEFLOOR,Outlet,1
 Non-Parent Node Connection,HEATING COIL WATER INLET NODE_UNIT2_BACKROW_MIDDLEFLOOR,COIL:HEATING:WATER,MAIN WATER HEATING COIL_UNIT2_BACKROW_MIDDLEFLOOR,Inlet,2
 Non-Parent Node Connection,HEATING COIL WATER OUTLET NODE_UNIT2_BACKROW_MIDDLEFLOOR,COIL:HEATING:WATER,MAIN WATER HEATING COIL_UNIT2_BACKROW_MIDDLEFLOOR,Outlet,2
 Non-Parent Node Connection,HEATING COIL AIR INLET NODE_UNIT2_BACKROW_MIDDLEFLOOR,COIL:HEATING:WATER,MAIN WATER HEATING COIL_UNIT2_BACKROW_MIDDLEFLOOR,Inlet,1
 Non-Parent Node Connection,AIR LOOP OUTLET NODE_UNIT2_BACKROW_MIDDLEFLOOR,COIL:HEATING:WATER,MAIN WATER HEATING COIL_UNIT2_BACKROW_MIDDLEFLOOR,Outlet,1
 Non-Parent Node Connection,HEATING COIL WATER INLET NODE_UNIT3_BACKROW_MIDDLEFLOOR,COIL:HEATING:WATER,MAIN WATER HEATING COIL_UNIT3_BACKROW_MIDDLEFLOOR,Inlet,2
 Non-Parent Node Connection,HEATING COIL WATER OUTLET NODE_UNIT3_BACKROW_MIDDLEFLOOR,COIL:HEATING:WATER,MAIN WATER HEATING COIL_UNIT3_BACKROW_MIDDLEFLOOR,Outlet,2
 Non-Parent Node Connection,HEATING COIL AIR INLET NODE_UNIT3_BACKROW_MIDDLEFLOOR,COIL:HEATING:WATER,MAIN WATER HEATING COIL_UNIT3_BACKROW_MIDDLEFLOOR,Inlet,1
 Non-Parent Node Connection,AIR LOOP OUTLET NODE_UNIT3_BACKROW_MIDDLEFLOOR,COIL:HEATING:WATER,MAIN WATER HEATING COIL_UNIT3_BACKROW_MIDDLEFLOOR,Outlet,1
 Non-Parent Node Connection,HEATING COIL WATER INLET NODE_UNIT1_FRONTROW_TOPFLOOR,COIL:HEATING:WATER,MAIN WATER HEATING COIL_UNIT1_FRONTROW_TOPFLOOR,Inlet,2
 Non-Parent Node Connection,HEATING COIL WATER OUTLET NODE_UNIT1_FRONTROW_TOPFLOOR,COIL:HEATING:WATER,MAIN WATER HEATING COIL_UNIT1_FRONTROW_TOPFLOOR,Outlet,2
 Non-Parent Node Connection,HEATING COIL AIR INLET NODE_UNIT1_FRONTROW_TOPFLOOR,COIL:HEATING:WATER,MAIN WATER HEATING COIL_UNIT1_FRONTROW_TOPFLOOR,Inlet,1
 Non-Parent Node Connection,AIR LOOP OUTLET NODE_UNIT1_FRONTROW_TOPFLOOR,COIL:HEATING:WATER,MAIN WATER HEATING COIL_UNIT1_FRONTROW_TOPFLOOR,Outlet,1
 Non-Parent Node Connection,HEATING COIL WATER INLET NODE_UNIT2_FRONTROW_TOPFLOOR,COIL:HEATING:WATER,MAIN WATER HEATING COIL_UNIT2_FRONTROW_TOPFLOOR,Inlet,2
 Non-Parent Node Connection,HEATING COIL WATER OUTLET NODE_UNIT2_FRONTROW_TOPFLOOR,COIL:HEATING:WATER,MAIN WATER HEATING COIL_UNIT2_FRONTROW_TOPFLOOR,Outlet,2
 Non-Parent Node Connection,HEATING COIL AIR INLET NODE_UNIT2_FRONTROW_TOPFLOOR,COIL:HEATING:WATER,MAIN WATER HEATING COIL_UNIT2_FRONTROW_TOPFLOOR,Inlet,1
 Non-Parent Node Connection,AIR LOOP OUTLET NODE_UNIT2_FRONTROW_TOPFLOOR,COIL:HEATING:WATER,MAIN WATER HEATING COIL_UNIT2_FRONTROW_TOPFLOOR,Outlet,1
 Non-Parent Node Connection,HEATING COIL WATER INLET NODE_UNIT3_FRONTROW_TOPFLOOR,COIL:HEATING:WATER,MAIN WATER HEATING COIL_UNIT3_FRONTROW_TOPFLOOR,Inlet,2
 Non-Parent Node Connection,HEATING COIL WATER OUTLET NODE_UNIT3_FRONTROW_TOPFLOOR,COIL:HEATING:WATER,MAIN WATER HEATING COIL_UNIT3_FRONTROW_TOPFLOOR,Outlet,2
 Non-Parent Node Connection,HEATING COIL AIR INLET NODE_UNIT3_FRONTROW_TOPFLOOR,COIL:HEATING:WATER,MAIN WATER HEATING COIL_UNIT3_FRONTROW_TOPFLOOR,Inlet,1
 Non-Parent Node Connection,AIR LOOP OUTLET NODE_UNIT3_FRONTROW_TOPFLOOR,COIL:HEATING:WATER,MAIN WATER HEATING COIL_UNIT3_FRONTROW_TOPFLOOR,Outlet,1
 Non-Parent Node Connection,HEATING COIL WATER INLET NODE_UNIT1_BACKROW_TOPFLOOR,COIL:HEATING:WATER,MAIN WATER HEATING COIL_UNIT1_BACKROW_TOPFLOOR,Inlet,2
 Non-Parent Node Connection,HEATING COIL WATER OUTLET NODE_UNIT1_BACKROW_TOPFLOOR,COIL:HEATING:WATER,MAIN WATER HEATING COIL_UNIT1_BACKROW_TOPFLOOR,Outlet,2
 Non-Parent Node Connection,HEATING COIL AIR INLET NODE_UNIT1_BACKROW_TOPFLOOR,COIL:HEATING:WATER,MAIN WATER HEATING COIL_UNIT1_BACKROW_TOPFLOOR,Inlet,1
 Non-Parent Node Connection,AIR LOOP OUTLET NODE_UNIT1_BACKROW_TOPFLOOR,COIL:HEATING:WATER,MAIN WATER HEATING COIL_UNIT1_BACKROW_TOPFLOOR,Outlet,1
 Non-Parent Node Connection,HEATING COIL WATER INLET NODE_UNIT2_BACKROW_TOPFLOOR,COIL:HEATING:WATER,MAIN WATER HEATING COIL_UNIT2_BACKROW_TOPFLOOR,Inlet,2
 Non-Parent Node Connection,HEATING COIL WATER OUTLET NODE_UNIT2_BACKROW_TOPFLOOR,COIL:HEATING:WATER,MAIN WATER HEATING COIL_UNIT2_BACKROW_TOPFLOOR,Outlet,2
 Non-Parent Node Connection,HEATING COIL AIR INLET NODE_UNIT2_BACKROW_TOPFLOOR,COIL:HEATING:WATER,MAIN WATER HEATING COIL_UNIT2_BACKROW_TOPFLOOR,Inlet,1
 Non-Parent Node Connection,AIR LOOP OUTLET NODE_UNIT2_BACKROW_TOPFLOOR,COIL:HEATING:WATER,MAIN WATER HEATING COIL_UNIT2_BACKROW_TOPFLOOR,Outlet,1
 Non-Parent Node Connection,HEATING COIL WATER INLET NODE_UNIT3_BACKROW_TOPFLOOR,COIL:HEATING:WATER,MAIN WATER HEATING COIL_UNIT3_BACKROW_TOPFLOOR,Inlet,2
 Non-Parent Node Connection,HEATING COIL WATER OUTLET NODE_UNIT3_BACKROW_TOPFLOOR,COIL:HEATING:WATER,MAIN WATER HEATING COIL_UNIT3_BACKROW_TOPFLOOR,Outlet,2
 Non-Parent Node Connection,HEATING COIL AIR INLET NODE_UNIT3_BACKROW_TOPFLOOR,COIL:HEATING:WATER,MAIN WATER HEATING COIL_UNIT3_BACKROW_TOPFLOOR,Inlet,1
 Non-Parent Node Connection,AIR LOOP OUTLET NODE_UNIT3_BACKROW_TOPFLOOR,COIL:HEATING:WATER,MAIN WATER HEATING COIL_UNIT3_BACKROW_TOPFLOOR,Outlet,1
 Non-Parent Node Connection,HW SUPPLY INLET NODE,PUMP:VARIABLESPEED,BOILER CIRC PUMP,Inlet,1
 Non-Parent Node Connection,HW PUMP OUTLET NODE,PUMP:VARIABLESPEED,BOILER CIRC PUMP,Outlet,1
 Non-Parent Node Connection,MAINS INLET NODE_UNIT1_FRONTROW_BOTTOMFLOOR,PUMP:VARIABLESPEED,MAINS PRESSURE_UNIT1_FRONTROW_BOTTOMFLOOR,Inlet,1
 Non-Parent Node Connection,MAINS PRESSURE OUTLET NODE_UNIT1_FRONTROW_BOTTOMFLOOR,PUMP:VARIABLESPEED,MAINS PRESSURE_UNIT1_FRONTROW_BOTTOMFLOOR,Outlet,1
 Non-Parent Node Connection,MAINS INLET NODE_UNIT2_FRONTROW_BOTTOMFLOOR,PUMP:VARIABLESPEED,MAINS PRESSURE_UNIT2_FRONTROW_BOTTOMFLOOR,Inlet,1
 Non-Parent Node Connection,MAINS PRESSURE OUTLET NODE_UNIT2_FRONTROW_BOTTOMFLOOR,PUMP:VARIABLESPEED,MAINS PRESSURE_UNIT2_FRONTROW_BOTTOMFLOOR,Outlet,1
 Non-Parent Node Connection,MAINS INLET NODE_UNIT3_FRONTROW_BOTTOMFLOOR,PUMP:VARIABLESPEED,MAINS PRESSURE_UNIT3_FRONTROW_BOTTOMFLOOR,Inlet,1
 Non-Parent Node Connection,MAINS PRESSURE OUTLET NODE_UNIT3_FRONTROW_BOTTOMFLOOR,PUMP:VARIABLESPEED,MAINS PRESSURE_UNIT3_FRONTROW_BOTTOMFLOOR,Outlet,1
 Non-Parent Node Connection,MAINS INLET NODE_UNIT1_BACKROW_BOTTOMFLOOR,PUMP:VARIABLESPEED,MAINS PRESSURE_UNIT1_BACKROW_BOTTOMFLOOR,Inlet,1
 Non-Parent Node Connection,MAINS PRESSURE OUTLET NODE_UNIT1_BACKROW_BOTTOMFLOOR,PUMP:VARIABLESPEED,MAINS PRESSURE_UNIT1_BACKROW_BOTTOMFLOOR,Outlet,1
 Non-Parent Node Connection,MAINS INLET NODE_UNIT2_BACKROW_BOTTOMFLOOR,PUMP:VARIABLESPEED,MAINS PRESSURE_UNIT2_BACKROW_BOTTOMFLOOR,Inlet,1
 Non-Parent Node Connection,MAINS PRESSURE OUTLET NODE_UNIT2_BACKROW_BOTTOMFLOOR,PUMP:VARIABLESPEED,MAINS PRESSURE_UNIT2_BACKROW_BOTTOMFLOOR,Outlet,1
 Non-Parent Node Connection,MAINS INLET NODE_UNIT3_BACKROW_BOTTOMFLOOR,PUMP:VARIABLESPEED,MAINS PRESSURE_UNIT3_BACKROW_BOTTOMFLOOR,Inlet,1
 Non-Parent Node Connection,MAINS PRESSURE OUTLET NODE_UNIT3_BACKROW_BOTTOMFLOOR,PUMP:VARIABLESPEED,MAINS PRESSURE_UNIT3_BACKROW_BOTTOMFLOOR,Outlet,1
 Non-Parent Node Connection,MAINS INLET NODE_UNIT1_FRONTROW_MIDDLEFLOOR,PUMP:VARIABLESPEED,MAINS PRESSURE_UNIT1_FRONTROW_MIDDLEFLOOR,Inlet,1
 Non-Parent Node Connection,MAINS PRESSURE OUTLET NODE_UNIT1_FRONTROW_MIDDLEFLOOR,PUMP:VARIABLESPEED,MAINS PRESSURE_UNIT1_FRONTROW_MIDDLEFLOOR,Outlet,1
 Non-Parent Node Connection,MAINS INLET NODE_UNIT2_FRONTROW_MIDDLEFLOOR,PUMP:VARIABLESPEED,MAINS PRESSURE_UNIT2_FRONTROW_MIDDLEFLOOR,Inlet,1
 Non-Parent Node Connection,MAINS PRESSURE OUTLET NODE_UNIT2_FRONTROW_MIDDLEFLOOR,PUMP:VARIABLESPEED,MAINS PRESSURE_UNIT2_FRONTROW_MIDDLEFLOOR,Outlet,1
 Non-Parent Node Connection,MAINS INLET NODE_UNIT3_FRONTROW_MIDDLEFLOOR,PUMP:VARIABLESPEED,MAINS PRESSURE_UNIT3_FRONTROW_MIDDLEFLOOR,Inlet,1
 Non-Parent Node Connection,MAINS PRESSURE OUTLET NODE_UNIT3_FRONTROW_MIDDLEFLOOR,PUMP:VARIABLESPEED,MAINS PRESSURE_UNIT3_FRONTROW_MIDDLEFLOOR,Outlet,1
 Non-Parent Node Connection,MAINS INLET NODE_UNIT1_BACKROW_MIDDLEFLOOR,PUMP:VARIABLESPEED,MAINS PRESSURE_UNIT1_BACKROW_MIDDLEFLOOR,Inlet,1
 Non-Parent Node Connection,MAINS PRESSURE OUTLET NODE_UNIT1_BACKROW_MIDDLEFLOOR,PUMP:VARIABLESPEED,MAINS PRESSURE_UNIT1_BACKROW_MIDDLEFLOOR,Outlet,1
 Non-Parent Node Connection,MAINS INLET NODE_UNIT2_BACKROW_MIDDLEFLOOR,PUMP:VARIABLESPEED,MAINS PRESSURE_UNIT2_BACKROW_MIDDLEFLOOR,Inlet,1
 Non-Parent Node Connection,MAINS PRESSURE OUTLET NODE_UNIT2_BACKROW_MIDDLEFLOOR,PUMP:VARIABLESPEED,MAINS PRESSURE_UNIT2_BACKROW_MIDDLEFLOOR,Outlet,1
 Non-Parent Node Connection,MAINS INLET NODE_UNIT3_BACKROW_MIDDLEFLOOR,PUMP:VARIABLESPEED,MAINS PRESSURE_UNIT3_BACKROW_MIDDLEFLOOR,Inlet,1
 Non-Parent Node Connection,MAINS PRESSURE OUTLET NODE_UNIT3_BACKROW_MIDDLEFLOOR,PUMP:VARIABLESPEED,MAINS PRESSURE_UNIT3_BACKROW_MIDDLEFLOOR,Outlet,1
 Non-Parent Node Connection,MAINS INLET NODE_UNIT1_FRONTROW_TOPFLOOR,PUMP:VARIABLESPEED,MAINS PRESSURE_UNIT1_FRONTROW_TOPFLOOR,Inlet,1
 Non-Parent Node Connection,MAINS PRESSURE OUTLET NODE_UNIT1_FRONTROW_TOPFLOOR,PUMP:VARIABLESPEED,MAINS PRESSURE_UNIT1_FRONTROW_TOPFLOOR,Outlet,1
 Non-Parent Node Connection,MAINS INLET NODE_UNIT2_FRONTROW_TOPFLOOR,PUMP:VARIABLESPEED,MAINS PRESSURE_UNIT2_FRONTROW_TOPFLOOR,Inlet,1
 Non-Parent Node Connection,MAINS PRESSURE OUTLET NODE_UNIT2_FRONTROW_TOPFLOOR,PUMP:VARIABLESPEED,MAINS PRESSURE_UNIT2_FRONTROW_TOPFLOOR,Outlet,1
 Non-Parent Node Connection,MAINS INLET NODE_UNIT3_FRONTROW_TOPFLOOR,PUMP:VARIABLESPEED,MAINS PRESSURE_UNIT3_FRONTROW_TOPFLOOR,Inlet,1
 Non-Parent Node Connection,MAINS PRESSURE OUTLET NODE_UNIT3_FRONTROW_TOPFLOOR,PUMP:VARIABLESPEED,MAINS PRESSURE_UNIT3_FRONTROW_TOPFLOOR,Outlet,1
 Non-Parent Node Connection,MAINS INLET NODE_UNIT1_BACKROW_TOPFLOOR,PUMP:VARIABLESPEED,MAINS PRESSURE_UNIT1_BACKROW_TOPFLOOR,Inlet,1
 Non-Parent Node Connection,MAINS PRESSURE OUTLET NODE_UNIT1_BACKROW_TOPFLOOR,PUMP:VARIABLESPEED,MAINS PRESSURE_UNIT1_BACKROW_TOPFLOOR,Outlet,1
 Non-Parent Node Connection,MAINS INLET NODE_UNIT2_BACKROW_TOPFLOOR,PUMP:VARIABLESPEED,MAINS PRESSURE_UNIT2_BACKROW_TOPFLOOR,Inlet,1
 Non-Parent Node Connection,MAINS PRESSURE OUTLET NODE_UNIT2_BACKROW_TOPFLOOR,PUMP:VARIABLESPEED,MAINS PRESSURE_UNIT2_BACKROW_TOPFLOOR,Outlet,1
 Non-Parent Node Connection,MAINS INLET NODE_UNIT3_BACKROW_TOPFLOOR,PUMP:VARIABLESPEED,MAINS PRESSURE_UNIT3_BACKROW_TOPFLOOR,Inlet,1
 Non-Parent Node Connection,MAINS PRESSURE OUTLET NODE_UNIT3_BACKROW_TOPFLOOR,PUMP:VARIABLESPEED,MAINS PRESSURE_UNIT3_BACKROW_TOPFLOOR,Outlet,1
