Program Version,EnergyPlus, Version 9.6.0-f420c06a69, YMD=2024.05.14 12:32
! <Version>, Version ID
 Version, 9.6
! <Timesteps per Hour>, #TimeSteps, Minutes per TimeStep {minutes}
 Timesteps per Hour,  1, 60
! <System Convergence Limits>, Minimum System TimeStep {minutes}, Max HVAC Iterations, Minimum Plant Iterations, Maximum Plant Iterations
 System Convergence Limits, 1, 20, 2, 8
! <Simulation Control>, Do Zone Sizing, Do System Sizing, Do Plant Sizing, Do Design Days, Do Weather Simulation, Do HVAC Sizing Simulation
 Simulation Control, Yes, Yes, No, No, Yes, No
! <Performance Precision Tradeoffs>, Use Coil Direct Simulation, Zone Radiant Exchange Algorithm, Override Mode, Number of Timestep In Hour, Force Euler Method, Minimum Number of Warmup Days, Force Suppress All Begin Environment Resets, Minimum System Timestep, MaxZoneTempDiff, MaxAllowedDelTemp
 Performance Precision Tradeoffs, No, ScriptF, Normal, 1, No, 1, No, 1.0, 0.300, 2.0000E-003
! <Output Reporting Tolerances>, Tolerance for Time Heating Setpoint Not Met, Tolerance for Zone Cooling Setpoint Not Met Time
 Output Reporting Tolerances, 0.200, 0.200, 
! <Site:GroundTemperature:BuildingSurface>,Jan{C},Feb{C},Mar{C},Apr{C},May{C},Jun{C},Jul{C},Aug{C},Sep{C},Oct{C},Nov{C},Dec{C}
 Site:GroundTemperature:BuildingSurface,  18.00,  18.00,  18.00,  18.00,  18.00,  18.00,  18.00,  18.00,  18.00,  18.00,  18.00,  18.00
! <Site:GroundTemperature:FCfactorMethod>,Jan{C},Feb{C},Mar{C},Apr{C},May{C},Jun{C},Jul{C},Aug{C},Sep{C},Oct{C},Nov{C},Dec{C}
 Site:GroundTemperature:FCfactorMethod,  -7.47,  -8.75,  -6.48,  -2.91,   6.41,  13.60,  18.45,  19.93,  17.41,  11.83,   4.36,  -2.56
! <Site:GroundTemperature:Shallow>,Jan{C},Feb{C},Mar{C},Apr{C},May{C},Jun{C},Jul{C},Aug{C},Sep{C},Oct{C},Nov{C},Dec{C}
 Site:GroundTemperature:Shallow,  13.00,  13.00,  13.00,  13.00,  13.00,  13.00,  13.00,  13.00,  13.00,  13.00,  13.00,  13.00
! <Site:GroundTemperature:Deep>,Jan{C},Feb{C},Mar{C},Apr{C},May{C},Jun{C},Jul{C},Aug{C},Sep{C},Oct{C},Nov{C},Dec{C}
 Site:GroundTemperature:Deep,  16.00,  16.00,  16.00,  16.00,  16.00,  16.00,  16.00,  16.00,  16.00,  16.00,  16.00,  16.00
! <Site:GroundReflectance>,Jan{dimensionless},Feb{dimensionless},Mar{dimensionless},Apr{dimensionless},May{dimensionless},Jun{dimensionless},Jul{dimensionless},Aug{dimensionless},Sep{dimensionless},Oct{dimensionless},Nov{dimensionless},Dec{dimensionless}
 Site:GroundReflectance,  0.20,  0.20,  0.20,  0.20,  0.20,  0.20,  0.20,  0.20,  0.20,  0.20,  0.20,  0.20
! <Site:GroundReflectance:SnowModifier>, Normal, Daylighting {dimensionless}
 Site:GroundReflectance:SnowModifier,   1.000,   1.000
! <Site:GroundReflectance:Snow>,Jan{dimensionless},Feb{dimensionless},Mar{dimensionless},Apr{dimensionless},May{dimensionless},Jun{dimensionless},Jul{dimensionless},Aug{dimensionless},Sep{dimensionless},Oct{dimensionless},Nov{dimensionless},Dec{dimensionless}
 Site:GroundReflectance:Snow,  0.20,  0.20,  0.20,  0.20,  0.20,  0.20,  0.20,  0.20,  0.20,  0.20,  0.20,  0.20
! <Site:GroundReflectance:Snow:Daylighting>,Jan{dimensionless},Feb{dimensionless},Mar{dimensionless},Apr{dimensionless},May{dimensionless},Jun{dimensionless},Jul{dimensionless},Aug{dimensionless},Sep{dimensionless},Oct{dimensionless},Nov{dimensionless},Dec{dimensionless}
 Site:GroundReflectance:Snow:Daylighting,  0.20,  0.20,  0.20,  0.20,  0.20,  0.20,  0.20,  0.20,  0.20,  0.20,  0.20,  0.20
! <Environment:Weather Station>,Wind Sensor Height Above Ground {m},Wind Speed Profile Exponent {},Wind Speed Profile Boundary Layer Thickness {m},Air Temperature Sensor Height Above Ground {m},Wind Speed Modifier Coefficient-Internal,Temperature Modifier Coefficient-Internal
Environment:Weather Station,10.000,0.140,270.000,1.500,1.586,9.750E-003
! <Site:Location>, Location Name, Latitude {N+/S- Deg}, Longitude {E+/W- Deg},  Time Zone Number {GMT+/-}, Elevation {m},  Standard Pressure at Elevation {Pa}, Standard RhoAir at Elevation
Site:Location,Quebec.City-Ste.Foy-Univ.Laval QC CAN Custom-713920 WMO#=713920,46.78,-71.29,-5.00,91.40,100232,1.1913
! <Site Water Mains Temperature Information>,Calculation Method{},Water Mains Temperature Schedule Name{},Annual Average Outdoor Air Temperature{C},Maximum Difference In Monthly Average Outdoor Air Temperatures{deltaC},Fixed Default Water Mains Temperature{C}
Site Water Mains Temperature Information,Correlation,NA,3.29,36.60,NA
! <Building Information>, Building Name,North Axis {deg},Terrain,  Loads Convergence Tolerance Value,Temperature Convergence Tolerance Value,  Solar Distribution,Maximum Number of Warmup Days,Minimum Number of Warmup Days
 Building Information,US+MF+CZ7+gasfurnace+unheatedbsmt+IECC_2021,0.000,Suburbs,4.00000E-002,0.40000,FullExterior,25,6
! <Inside Convection Algorithm>, Algorithm {Simple | TARP | CeilingDiffuser | AdaptiveConvectionAlgorithm}
Inside Convection Algorithm,TARP
! <Outside Convection Algorithm>, Algorithm {SimpleCombined | TARP | MoWitt | DOE-2 | AdaptiveConvectionAlgorithm}
Outside Convection Algorithm,DOE-2
! <Sky Radiance Distribution>, Value {Anisotropic}
Sky Radiance Distribution,Anisotropic
! <Zone Air Solution Algorithm>, Value {ThirdOrderBackwardDifference | AnalyticalSolution | EulerMethod}
 Zone Air Solution Algorithm, ThirdOrderBackwardDifference
! <Zone Air Carbon Dioxide Balance Simulation>, Simulation {Yes/No}, Carbon Dioxide Concentration
 Zone Air Carbon Dioxide Balance Simulation, No,N/A
! <Zone Air Generic Contaminant Balance Simulation>, Simulation {Yes/No}, Generic Contaminant Concentration
 Zone Air Generic Contaminant Balance Simulation, No,N/A
! <Zone Air Mass Flow Balance Simulation>, Enforce Mass Balance, Adjust Zone Mixing and Return {AdjustMixingOnly | AdjustReturnOnly | AdjustMixingThenReturn | AdjustReturnThenMixing | None}, Adjust Zone Infiltration {AddInfiltration | AdjustInfiltration | None}, Infiltration Zones {MixingSourceZonesOnly | AllZones}
 Zone Air Mass Flow Balance Simulation, No,N/A,N/A,N/A
! <HVACSystemRootFindingAlgorithm>, Value {RegulaFalsi | Bisection | BisectionThenRegulaFalsi | RegulaFalsiThenBisection}
 HVACSystemRootFindingAlgorithm, RegulaFalsi
! <Environment:Site Atmospheric Variation>,Wind Speed Profile Exponent {},Wind Speed Profile Boundary Layer Thickness {m},Air Temperature Gradient Coefficient {K/m}
Environment:Site Atmospheric Variation,0.220,370.000,6.500000E-003
! <Material Details>,Material Name,ThermalResistance {m2-K/w},Roughness,Thickness {m},Conductivity {w/m-K},Density {kg/m3},Specific Heat {J/kg-K},Absorptance:Thermal,Absorptance:Solar,Absorptance:Visible
! <Material:Air>,Material Name,ThermalResistance {m2-K/w}
 Material Details,SHEATHING_CONSOL_LAYER,0.8807,Rough,3.1115E-002,3.533E-002,20.100,1465.415,0.9000,0.7000,0.7000
 Material Details,CEIL_CONSOL_LAYER,9.1788,Rough,0.5665,6.172E-002,41.929,776.251,0.9000,0.7000,0.7000
 Material Details,FLOOR_CONSOL_LAYER,5.7198,Rough,0.2858,4.996E-002,55.074,916.931,0.9000,0.7000,0.7000
 Material Details,BSMTWALL_CONSOL_LAYER,2.3423E-005,Rough,2.5400E-004,10.844,120.801,1036.258,0.9000,0.7000,0.7000
 Material Details,CRAWLWALL_CONSOL_LAYER,2.3423E-005,Rough,2.5400E-004,10.844,120.801,1036.258,0.9000,0.7000,0.7000
 Material Details,WALL_CONSOL_LAYER,2.4438,Rough,0.1397,5.717E-002,120.801,1036.258,0.9000,0.7000,0.7000
 Material Details,VERY HIGH REFLECTIVITY SURFACE,2.1097E-006,Smooth,5.0000E-004,237.000,2702.000,903.000,0.9000,5.0000E-002,5.0000E-002
 Material Details,GYPSUMBOARD-5/16IN,5.0054E-002,Rough,7.9395E-003,0.159,640.000,1129.600,0.9000,0.4000,0.1000
 Material Details,COPPERPIPE,4.7506E-005,MediumRough,1.9050E-002,401.000,2243.000,837.000,0.9000,0.6500,0.6500
 Material Details,F08 METAL SURFACE,1.7668E-005,Smooth,8.0000E-004,45.280,7824.000,500.000,0.9000,0.7000,0.7000
 Material Details,CONCRETE_4IN,7.7356E-002,Rough,0.1015,1.312,2242.800,465.200,0.9000,0.7000,0.7000
 Material Details,ASPHALT_SHINGLE,7.7448E-002,MediumRough,6.3399E-003,8.186E-002,1121.292,1255.200,0.9000,0.7500,0.7000
 Material Details,WOOD_SHINGLE,0.1115,MediumSmooth,1.2700E-002,0.114,426.091,1631.760,0.9000,0.7000,0.7000
 Material Details,SLATE_SHINGLE,8.8061E-003,MediumSmooth,1.2700E-002,1.442,1601.845,1255.200,0.9000,0.7000,0.7000
 Material Details,CEMENT_STUCCO,2.6422E-002,MediumSmooth,1.9050E-002,0.721,1865.580,878.640,0.9000,0.7000,0.7000
 Material Details,SYN_STUCCO,3.5237E-002,MediumSmooth,3.0480E-003,8.650E-002,400.000,878.640,0.9000,0.7000,0.7000
 Material Details,DRYWALL_1/2IN,7.9331E-002,MediumSmooth,1.2700E-002,0.160,800.923,1087.840,0.9000,0.7000,0.7000
 Material Details,OSB_5/8IN,0.1365,MediumSmooth,1.5875E-002,0.116,544.627,1213.360,0.9000,0.7000,0.7000
 Material Details,OSB_7/16IN,9.5550E-002,MediumSmooth,1.1113E-002,0.116,544.627,1213.360,0.9000,0.7000,0.7000
 Material Details,BLOWN_R30,5.1614,MediumRough,0.2126,4.119E-002,9.611,836.800,0.9000,0.7000,0.7000
 Material Details,BLOWN_R30_TOP,2.8489,MediumRough,0.1173,4.119E-002,9.611,836.800,0.9000,0.7000,0.7000
 Material Details,PLYWOOD_3/4IN,0.1650,Rough,1.9050E-002,0.115,544.680,674.540,0.9000,0.7000,0.7000
 Material Details,BATT_R19,7.3089,MediumRough,2.5400E-002,3.475E-003,9.611,836.800,0.9000,0.7000,0.7000
 Material Details,LUMBER_2X4,0.7709,Rough,8.9002E-002,0.115,512.640,767.580,0.9000,0.7000,0.7000
 Material Details,CARPET_N_PAD,0.4224,MediumSmooth,2.5400E-002,6.013E-002,32.037,836.800,0.9000,0.7000,0.7000
 Material Details,BATT_R13,2.2936,MediumRough,8.8900E-002,3.876E-002,9.611,836.800,0.9000,0.7000,0.7000
 Material Details,OSB_1/2IN,0.1092,MediumSmooth,1.2700E-002,0.116,544.627,1213.360,0.9000,0.7000,0.7000
 Material Details,SOIL_12IN,0.1761,Rough,0.3048,1.731,1842.300,232.600,0.9000,0.7000,0.7000
 Material Details,DOOR_CONST,0.5870,Smooth,4.2270E-002,7.201E-002,512.640,767.580,0.9000,0.7000,0.7000
 Material Details,GYP_BOARD_1/2IN,8.0130E-002,Rough,1.2710E-002,0.159,640.000,1129.600,0.9000,0.4000,0.1000
 Material Details,STD WOOD 6INCH,1.2500,MediumSmooth,0.1500,0.120,540.000,1210.000,0.9000,0.7000,0.7000
 Material Details,PIPE INSULATION,0.3830,VeryRough,1.2703E-002,3.317E-002,91.000,836.000,0.9000,0.5000,0.5000
 Material Details,MANF_WALL_AIRGAP,0.1200,Smooth,0.0000,0.000,0.000,0.000,0.9000,0.7000,0.7000
 Material Details,BLDG_PAPER_FELT,1.0567E-002,Smooth,0.0000,0.000,0.000,0.000,0.9000,0.7000,0.7000
 Material Details,R_HIGH,177.0000,MediumRough,0.0000,0.000,0.000,0.000,0.9000,0.7000,0.7000
 Material:Air,AIR_4_IN_VERT,0.1585
 Material:Air,3/4IN_AIR_SPACE,8.5130E-002
 Material:Air,3/4IN_REFLECTIVE_AIR_SPACE,0.2466
 Material Details,CLEAR ACRYLIC PLASTIC,3.3333E-003,VerySmooth,3.0000E-003,0.900,0.000,0.000,0.9000,0.0000,0.0000
 Material Details,DIFFUSING ACRYLIC PLASTIC,2.4444E-003,VerySmooth,2.2000E-003,0.900,0.000,0.000,0.9000,0.0000,0.0000
 Material Details,INT_BLIND,0.0000,Rough,0.0000,0.000,0.000,0.000,0.0000,0.0000,0.0000
 Material Details,GLASS,0.4127,VerySmooth,4.1840E-002,0.101,0.000,0.000,0.8400,0.0000,0.0000
! <Surface Geometry>,Starting Corner,Vertex Input Direction,Coordinate System,Daylight Reference Point Coordinate System,Rectangular (Simple) Surface Coordinate System
 Surface Geometry,LowerLeftCorner,Counterclockwise,RelativeCoordinateSystem,RelativeCoordinateSystem,RelativeToZoneOrigin
! <Surface Heat Transfer Algorithm>, Value {CTF - ConductionTransferFunction | EMPD - MoisturePenetrationDepthConductionTransferFunction | CondFD - ConductionFiniteDifference | HAMT - CombinedHeatAndMoistureFiniteElement} - Description,Inside Surface Max Temperature Limit{C}, Surface Convection Coefficient Lower Limit {W/m2-K}, Surface Convection Coefficient Upper Limit {W/m2-K}
Surface Heat Transfer Algorithm, CTF - ConductionTransferFunction,200,0.10,1000.0
! <Shading Summary>, Number of Fixed Detached Shades, Number of Building Detached Shades, Number of Attached Shades
 Shading Summary,0,0,60
! <Zone Summary>, Number of Zones, Number of Zone Surfaces, Number of SubSurfaces
 Zone Summary,21,186,48
! <Zone Information>,Zone Name,North Axis {deg},Origin X-Coordinate {m},Origin Y-Coordinate {m},Origin Z-Coordinate {m},Centroid X-Coordinate {m},Centroid Y-Coordinate {m},Centroid Z-Coordinate {m},Type,Zone Multiplier,Zone List Multiplier,Minimum X {m},Maximum X {m},Minimum Y {m},Maximum Y {m},Minimum Z {m},Maximum Z {m},Ceiling Height {m},Volume {m3},Zone Inside Convection Algorithm {Simple-Detailed-CeilingDiffuser-TrombeWall},Zone Outside Convection Algorithm {Simple-Detailed-Tarp-MoWitt-DOE-2-BLAST}, Floor Area {m2},Exterior Gross Wall Area {m2},Exterior Net Wall Area {m2},Exterior Window Area {m2}, Number of Surfaces, Number of SubSurfaces, Number of Shading SubSurfaces,  Part of Total Building Area
 Zone Information, UNHEATEDBSMT,0.0,0.00,0.00,0.00,18.27,9.91,-1.03,1,1,1,0.00,36.54,0.00,19.84,-2.13,0.15,2.29,1657.41,TARP,DOE-2,724.05,17.19,17.19,0.00,15,0,0,Yes
 Zone Information, BREEZEWAY,0.0,0.00,0.00,0.00,18.27,9.92,4.04,1,1,1,0.00,36.54,9.16,10.68,0.15,7.92,5.18,865.04,TARP,DOE-2,167.04,0.00,0.00,0.00,4,0,0,Yes
 Zone Information, LIVING_UNIT1_FRONTROW_BOTTOMFLOOR,0.0,0.00,0.00,0.00,6.09,4.58,1.45,1,1,1,0.00,12.18,0.00,9.16,0.15,2.74,2.59,289.01,TARP,DOE-2,111.52,86.85,71.18,13.72,6,3,4,Yes
 Zone Information, LIVING_UNIT2_FRONTROW_BOTTOMFLOOR,0.0,0.00,0.00,0.00,18.27,4.58,1.45,1,1,1,12.18,24.36,0.00,9.16,0.15,2.74,2.59,289.01,TARP,DOE-2,111.52,63.12,55.68,5.49,6,2,2,Yes
 Zone Information, LIVING_UNIT3_FRONTROW_BOTTOMFLOOR,0.0,0.00,0.00,0.00,30.45,4.58,1.45,1,1,1,24.36,36.54,0.00,9.16,0.15,2.74,2.59,289.01,TARP,DOE-2,111.52,86.85,71.18,13.72,6,3,4,Yes
 Zone Information, LIVING_UNIT1_BACKROW_BOTTOMFLOOR,0.0,0.00,0.00,0.00,6.09,15.26,1.45,1,1,1,0.00,12.18,10.68,19.84,0.15,2.74,2.59,289.01,TARP,DOE-2,111.52,86.85,71.18,13.72,6,3,4,Yes
 Zone Information, LIVING_UNIT2_BACKROW_BOTTOMFLOOR,0.0,0.00,0.00,0.00,18.27,15.26,1.45,1,1,1,12.18,24.36,10.68,19.84,0.15,2.74,2.59,289.01,TARP,DOE-2,111.52,63.12,55.68,5.49,6,2,2,Yes
 Zone Information, LIVING_UNIT3_BACKROW_BOTTOMFLOOR,0.0,0.00,0.00,0.00,30.45,15.26,1.45,1,1,1,24.36,36.54,10.68,19.84,0.15,2.74,2.59,289.01,TARP,DOE-2,111.52,86.85,71.18,13.72,6,3,4,Yes
 Zone Information, LIVING_UNIT1_FRONTROW_MIDDLEFLOOR,0.0,0.00,0.00,0.00,6.09,4.58,4.04,1,1,1,0.00,12.18,0.00,9.16,2.74,5.33,2.59,289.01,TARP,DOE-2,111.52,86.85,71.18,13.72,6,3,4,Yes
 Zone Information, LIVING_UNIT2_FRONTROW_MIDDLEFLOOR,0.0,0.00,0.00,0.00,18.27,4.58,4.04,1,1,1,12.18,24.36,0.00,9.16,2.74,5.33,2.59,289.01,TARP,DOE-2,111.52,63.12,55.68,5.49,6,2,2,Yes
 Zone Information, LIVING_UNIT3_FRONTROW_MIDDLEFLOOR,0.0,0.00,0.00,0.00,30.45,4.58,4.04,1,1,1,24.36,36.54,0.00,9.16,2.74,5.33,2.59,289.01,TARP,DOE-2,111.52,86.85,71.18,13.72,6,3,4,Yes
 Zone Information, LIVING_UNIT1_BACKROW_MIDDLEFLOOR,0.0,0.00,0.00,0.00,6.09,15.26,4.04,1,1,1,0.00,12.18,10.68,19.84,2.74,5.33,2.59,289.01,TARP,DOE-2,111.52,86.85,71.18,13.72,6,3,4,Yes
 Zone Information, LIVING_UNIT2_BACKROW_MIDDLEFLOOR,0.0,0.00,0.00,0.00,18.27,15.26,4.04,1,1,1,12.18,24.36,10.68,19.84,2.74,5.33,2.59,289.01,TARP,DOE-2,111.52,63.12,55.68,5.49,6,2,2,Yes
 Zone Information, LIVING_UNIT3_BACKROW_MIDDLEFLOOR,0.0,0.00,0.00,0.00,30.45,15.26,4.04,1,1,1,24.36,36.54,10.68,19.84,2.74,5.33,2.59,289.01,TARP,DOE-2,111.52,86.85,71.18,13.72,6,3,4,Yes
 Zone Information, ATTIC,0.0,-41.12,15.73,0.00,18.27,9.92,9.01,1,1,1,0.00,36.54,0.00,19.84,7.92,12.05,2.06,1494.78,TARP,DOE-2,724.82,81.87,81.87,0.00,11,0,0,Yes
 Zone Information, LIVING_UNIT3_BACKROW_TOPFLOOR,0.0,0.00,0.00,0.00,30.45,15.26,6.63,1,1,1,24.36,36.54,10.68,19.84,5.33,7.92,2.59,289.01,TARP,DOE-2,111.52,86.85,71.18,13.72,6,3,4,Yes
 Zone Information, LIVING_UNIT3_FRONTROW_TOPFLOOR,0.0,0.00,0.00,0.00,30.45,4.58,6.63,1,1,1,24.36,36.54,0.00,9.16,5.33,7.92,2.59,289.01,TARP,DOE-2,111.52,86.85,71.18,13.72,6,3,4,Yes
 Zone Information, LIVING_UNIT1_FRONTROW_TOPFLOOR,0.0,0.00,0.00,0.00,6.09,4.58,6.63,1,1,1,0.00,12.18,0.00,9.16,5.33,7.92,2.59,289.01,TARP,DOE-2,111.52,86.85,71.18,13.72,6,3,4,Yes
 Zone Information, LIVING_UNIT2_BACKROW_TOPFLOOR,0.0,0.00,0.00,0.00,18.27,15.26,6.63,1,1,1,12.18,24.36,10.68,19.84,5.33,7.92,2.59,289.01,TARP,DOE-2,111.52,63.12,55.68,5.49,6,2,2,Yes
 Zone Information, LIVING_UNIT2_FRONTROW_TOPFLOOR,0.0,0.00,0.00,0.00,18.27,4.58,6.63,1,1,1,12.18,24.36,0.00,9.16,5.33,7.92,2.59,289.01,TARP,DOE-2,111.52,63.12,55.68,5.49,6,2,2,Yes
 Zone Information, LIVING_UNIT1_BACKROW_TOPFLOOR,0.0,0.00,0.00,0.00,6.09,15.26,6.63,1,1,1,0.00,12.18,10.68,19.84,5.33,7.92,2.59,289.01,TARP,DOE-2,111.52,86.85,71.18,13.72,6,3,4,Yes
! <Zone Internal Gains Nominal>,Zone Name, Floor Area {m2},# Occupants,Area per Occupant {m2/person},Occupant per Area {person/m2},Interior Lighting {W/m2},Electric Load {W/m2},Gas Load {W/m2},Other Load {W/m2},Hot Water Eq {W/m2},Steam Equipment {W/m2},Sum Loads per Area {W/m2},Outdoor Controlled Baseboard Heat
 Zone Internal Gains Nominal, UNHEATEDBSMT,724.05,0.0,N/A,0.000,0.000,0.000,0.000,0.000,0.000,0.000,0.000,No
 Zone Internal Gains Nominal, BREEZEWAY,167.04,0.0,N/A,0.000,0.000,0.000,0.000,0.000,0.000,0.000,0.000,No
 Zone Internal Gains Nominal, LIVING_UNIT1_FRONTROW_BOTTOMFLOOR,111.52,2.0,55.762,1.793E-002,1.840,6.658,7.425,0.000,0.000,0.000,15.922,No
 Zone Internal Gains Nominal, LIVING_UNIT2_FRONTROW_BOTTOMFLOOR,111.52,2.0,55.762,1.793E-002,1.840,6.658,7.425,0.000,0.000,0.000,15.922,No
 Zone Internal Gains Nominal, LIVING_UNIT3_FRONTROW_BOTTOMFLOOR,111.52,2.0,55.762,1.793E-002,1.840,6.658,7.425,0.000,0.000,0.000,15.922,No
 Zone Internal Gains Nominal, LIVING_UNIT1_BACKROW_BOTTOMFLOOR,111.52,2.0,55.762,1.793E-002,1.840,6.658,7.425,0.000,0.000,0.000,15.922,No
 Zone Internal Gains Nominal, LIVING_UNIT2_BACKROW_BOTTOMFLOOR,111.52,2.0,55.762,1.793E-002,1.840,6.658,7.425,0.000,0.000,0.000,15.922,No
 Zone Internal Gains Nominal, LIVING_UNIT3_BACKROW_BOTTOMFLOOR,111.52,2.0,55.762,1.793E-002,1.840,6.658,7.425,0.000,0.000,0.000,15.922,No
 Zone Internal Gains Nominal, LIVING_UNIT1_FRONTROW_MIDDLEFLOOR,111.52,2.0,55.762,1.793E-002,1.840,6.658,7.425,0.000,0.000,0.000,15.922,No
 Zone Internal Gains Nominal, LIVING_UNIT2_FRONTROW_MIDDLEFLOOR,111.52,2.0,55.762,1.793E-002,1.840,6.658,7.425,0.000,0.000,0.000,15.922,No
 Zone Internal Gains Nominal, LIVING_UNIT3_FRONTROW_MIDDLEFLOOR,111.52,2.0,55.762,1.793E-002,1.840,6.658,7.425,0.000,0.000,0.000,15.922,No
 Zone Internal Gains Nominal, LIVING_UNIT1_BACKROW_MIDDLEFLOOR,111.52,2.0,55.762,1.793E-002,1.840,6.658,7.425,0.000,0.000,0.000,15.922,No
 Zone Internal Gains Nominal, LIVING_UNIT2_BACKROW_MIDDLEFLOOR,111.52,2.0,55.762,1.793E-002,1.840,6.658,7.425,0.000,0.000,0.000,15.922,No
 Zone Internal Gains Nominal, LIVING_UNIT3_BACKROW_MIDDLEFLOOR,111.52,2.0,55.762,1.793E-002,1.840,6.658,7.425,0.000,0.000,0.000,15.922,No
 Zone Internal Gains Nominal, ATTIC,724.82,0.0,N/A,0.000,0.000,0.000,0.000,0.000,0.000,0.000,0.000,No
 Zone Internal Gains Nominal, LIVING_UNIT3_BACKROW_TOPFLOOR,111.52,2.0,55.762,1.793E-002,1.840,6.658,7.425,0.000,0.000,0.000,15.922,No
 Zone Internal Gains Nominal, LIVING_UNIT3_FRONTROW_TOPFLOOR,111.52,2.0,55.762,1.793E-002,1.840,6.658,7.425,0.000,0.000,0.000,15.922,No
 Zone Internal Gains Nominal, LIVING_UNIT1_FRONTROW_TOPFLOOR,111.52,2.0,55.762,1.793E-002,1.840,6.658,7.425,0.000,0.000,0.000,15.922,No
 Zone Internal Gains Nominal, LIVING_UNIT2_BACKROW_TOPFLOOR,111.52,2.0,55.762,1.793E-002,1.840,6.658,7.425,0.000,0.000,0.000,15.922,No
 Zone Internal Gains Nominal, LIVING_UNIT2_FRONTROW_TOPFLOOR,111.52,2.0,55.762,1.793E-002,1.840,6.658,7.425,0.000,0.000,0.000,15.922,No
 Zone Internal Gains Nominal, LIVING_UNIT1_BACKROW_TOPFLOOR,111.52,2.0,55.762,1.793E-002,1.840,6.658,7.425,0.000,0.000,0.000,15.922,No
! <People Internal Gains Nominal>,Name,Schedule Name,Zone Name,Zone Floor Area {m2},# Zone Occupants,Number of People {},People/Floor Area {person/m2},Floor Area per person {m2/person},Fraction Radiant,Fraction Convected,Sensible Fraction Calculation,Activity level,ASHRAE 55 Warnings,Carbon Dioxide Generation Rate,Nominal Minimum Number of People,Nominal Maximum Number of People
 People Internal Gains Nominal, PEOPLE_UNIT1_FRONTROW_BOTTOMFLOOR,OCCUPANCY,LIVING_UNIT1_FRONTROW_BOTTOMFLOOR,111.52,2.0,2.0,1.793E-002,55.762,0.000,1.000,AutoCalculate,ACTIVITY_SCH,No,3.8200E-008,0,2
 People Internal Gains Nominal, PEOPLE_UNIT2_FRONTROW_BOTTOMFLOOR,OCCUPANCY,LIVING_UNIT2_FRONTROW_BOTTOMFLOOR,111.52,2.0,2.0,1.793E-002,55.762,0.000,1.000,AutoCalculate,ACTIVITY_SCH,No,3.8200E-008,0,2
 People Internal Gains Nominal, PEOPLE_UNIT3_FRONTROW_BOTTOMFLOOR,OCCUPANCY,LIVING_UNIT3_FRONTROW_BOTTOMFLOOR,111.52,2.0,2.0,1.793E-002,55.762,0.000,1.000,AutoCalculate,ACTIVITY_SCH,No,3.8200E-008,0,2
 People Internal Gains Nominal, PEOPLE_UNIT1_BACKROW_BOTTOMFLOOR,OCCUPANCY,LIVING_UNIT1_BACKROW_BOTTOMFLOOR,111.52,2.0,2.0,1.793E-002,55.762,0.000,1.000,AutoCalculate,ACTIVITY_SCH,No,3.8200E-008,0,2
 People Internal Gains Nominal, PEOPLE_UNIT2_BACKROW_BOTTOMFLOOR,OCCUPANCY,LIVING_UNIT2_BACKROW_BOTTOMFLOOR,111.52,2.0,2.0,1.793E-002,55.762,0.000,1.000,AutoCalculate,ACTIVITY_SCH,No,3.8200E-008,0,2
 People Internal Gains Nominal, PEOPLE_UNIT3_BACKROW_BOTTOMFLOOR,OCCUPANCY,LIVING_UNIT3_BACKROW_BOTTOMFLOOR,111.52,2.0,2.0,1.793E-002,55.762,0.000,1.000,AutoCalculate,ACTIVITY_SCH,No,3.8200E-008,0,2
 People Internal Gains Nominal, PEOPLE_UNIT1_FRONTROW_MIDDLEFLOOR,OCCUPANCY,LIVING_UNIT1_FRONTROW_MIDDLEFLOOR,111.52,2.0,2.0,1.793E-002,55.762,0.000,1.000,AutoCalculate,ACTIVITY_SCH,No,3.8200E-008,0,2
 People Internal Gains Nominal, PEOPLE_UNIT2_FRONTROW_MIDDLEFLOOR,OCCUPANCY,LIVING_UNIT2_FRONTROW_MIDDLEFLOOR,111.52,2.0,2.0,1.793E-002,55.762,0.000,1.000,AutoCalculate,ACTIVITY_SCH,No,3.8200E-008,0,2
 People Internal Gains Nominal, PEOPLE_UNIT3_FRONTROW_MIDDLEFLOOR,OCCUPANCY,LIVING_UNIT3_FRONTROW_MIDDLEFLOOR,111.52,2.0,2.0,1.793E-002,55.762,0.000,1.000,AutoCalculate,ACTIVITY_SCH,No,3.8200E-008,0,2
 People Internal Gains Nominal, PEOPLE_UNIT1_BACKROW_MIDDLEFLOOR,OCCUPANCY,LIVING_UNIT1_BACKROW_MIDDLEFLOOR,111.52,2.0,2.0,1.793E-002,55.762,0.000,1.000,AutoCalculate,ACTIVITY_SCH,No,3.8200E-008,0,2
 People Internal Gains Nominal, PEOPLE_UNIT2_BACKROW_MIDDLEFLOOR,OCCUPANCY,LIVING_UNIT2_BACKROW_MIDDLEFLOOR,111.52,2.0,2.0,1.793E-002,55.762,0.000,1.000,AutoCalculate,ACTIVITY_SCH,No,3.8200E-008,0,2
 People Internal Gains Nominal, PEOPLE_UNIT3_BACKROW_MIDDLEFLOOR,OCCUPANCY,LIVING_UNIT3_BACKROW_MIDDLEFLOOR,111.52,2.0,2.0,1.793E-002,55.762,0.000,1.000,AutoCalculate,ACTIVITY_SCH,No,3.8200E-008,0,2
 People Internal Gains Nominal, PEOPLE_UNIT1_FRONTROW_TOPFLOOR,OCCUPANCY,LIVING_UNIT1_FRONTROW_TOPFLOOR,111.52,2.0,2.0,1.793E-002,55.762,0.000,1.000,AutoCalculate,ACTIVITY_SCH,No,3.8200E-008,0,2
 People Internal Gains Nominal, PEOPLE_UNIT2_FRONTROW_TOPFLOOR,OCCUPANCY,LIVING_UNIT2_FRONTROW_TOPFLOOR,111.52,2.0,2.0,1.793E-002,55.762,0.000,1.000,AutoCalculate,ACTIVITY_SCH,No,3.8200E-008,0,2
 People Internal Gains Nominal, PEOPLE_UNIT3_FRONTROW_TOPFLOOR,OCCUPANCY,LIVING_UNIT3_FRONTROW_TOPFLOOR,111.52,2.0,2.0,1.793E-002,55.762,0.000,1.000,AutoCalculate,ACTIVITY_SCH,No,3.8200E-008,0,2
 People Internal Gains Nominal, PEOPLE_UNIT1_BACKROW_TOPFLOOR,OCCUPANCY,LIVING_UNIT1_BACKROW_TOPFLOOR,111.52,2.0,2.0,1.793E-002,55.762,0.000,1.000,AutoCalculate,ACTIVITY_SCH,No,3.8200E-008,0,2
 People Internal Gains Nominal, PEOPLE_UNIT2_BACKROW_TOPFLOOR,OCCUPANCY,LIVING_UNIT2_BACKROW_TOPFLOOR,111.52,2.0,2.0,1.793E-002,55.762,0.000,1.000,AutoCalculate,ACTIVITY_SCH,No,3.8200E-008,0,2
 People Internal Gains Nominal, PEOPLE_UNIT3_BACKROW_TOPFLOOR,OCCUPANCY,LIVING_UNIT3_BACKROW_TOPFLOOR,111.52,2.0,2.0,1.793E-002,55.762,0.000,1.000,AutoCalculate,ACTIVITY_SCH,No,3.8200E-008,0,2
! <Lights Internal Gains Nominal>,Name,Schedule Name,Zone Name,Zone Floor Area {m2},# Zone Occupants,Lighting Level {W},Lights/Floor Area {W/m2},Lights per person {W/person},Fraction Return Air,Fraction Radiant,Fraction Short Wave,Fraction Convected,Fraction Replaceable,End-Use Category,Nominal Minimum Lighting Level {W},Nominal Maximum Lighting Level {W}
 Lights Internal Gains Nominal, LIVING HARDWIRED LIGHTING1_FRONTROW_BOTTOMFLOOR,INTERIORLIGHTINGHE,LIVING_UNIT1_FRONTROW_BOTTOMFLOOR,111.52,2.0,141.024,1.265,70.512,0.000,0.600,0.200,0.200,0.000,General,9.695,141.024
 Lights Internal Gains Nominal, LIVING PLUG-IN LIGHTING1_FRONTROW_BOTTOMFLOOR,INTERIORLIGHTINGHE,LIVING_UNIT1_FRONTROW_BOTTOMFLOOR,111.52,2.0,64.130,0.575,32.065,0.000,0.600,0.200,0.200,0.000,General,4.409,64.130
 Lights Internal Gains Nominal, LIVING HARDWIRED LIGHTING2_FRONTROW_BOTTOMFLOOR,INTERIORLIGHTINGHE,LIVING_UNIT2_FRONTROW_BOTTOMFLOOR,111.52,2.0,141.024,1.265,70.512,0.000,0.600,0.200,0.200,0.000,General,9.695,141.024
 Lights Internal Gains Nominal, LIVING PLUG-IN LIGHTING2_FRONTROW_BOTTOMFLOOR,INTERIORLIGHTINGHE,LIVING_UNIT2_FRONTROW_BOTTOMFLOOR,111.52,2.0,64.130,0.575,32.065,0.000,0.600,0.200,0.200,0.000,General,4.409,64.130
 Lights Internal Gains Nominal, LIVING HARDWIRED LIGHTING3_FRONTROW_BOTTOMFLOOR,INTERIORLIGHTINGHE,LIVING_UNIT3_FRONTROW_BOTTOMFLOOR,111.52,2.0,141.024,1.265,70.512,0.000,0.600,0.200,0.200,0.000,General,9.695,141.024
 Lights Internal Gains Nominal, LIVING PLUG-IN LIGHTING3_FRONTROW_BOTTOMFLOOR,INTERIORLIGHTINGHE,LIVING_UNIT3_FRONTROW_BOTTOMFLOOR,111.52,2.0,64.130,0.575,32.065,0.000,0.600,0.200,0.200,0.000,General,4.409,64.130
 Lights Internal Gains Nominal, LIVING HARDWIRED LIGHTING1_BACKROW_BOTTOMFLOOR,INTERIORLIGHTINGHE,LIVING_UNIT1_BACKROW_BOTTOMFLOOR,111.52,2.0,141.024,1.265,70.512,0.000,0.600,0.200,0.200,0.000,General,9.695,141.024
 Lights Internal Gains Nominal, LIVING PLUG-IN LIGHTING1_BACKROW_BOTTOMFLOOR,INTERIORLIGHTINGHE,LIVING_UNIT1_BACKROW_BOTTOMFLOOR,111.52,2.0,64.130,0.575,32.065,0.000,0.600,0.200,0.200,0.000,General,4.409,64.130
 Lights Internal Gains Nominal, LIVING HARDWIRED LIGHTING2_BACKROW_BOTTOMFLOOR,INTERIORLIGHTINGHE,LIVING_UNIT2_BACKROW_BOTTOMFLOOR,111.52,2.0,141.024,1.265,70.512,0.000,0.600,0.200,0.200,0.000,General,9.695,141.024
 Lights Internal Gains Nominal, LIVING PLUG-IN LIGHTING2_BACKROW_BOTTOMFLOOR,INTERIORLIGHTINGHE,LIVING_UNIT2_BACKROW_BOTTOMFLOOR,111.52,2.0,64.130,0.575,32.065,0.000,0.600,0.200,0.200,0.000,General,4.409,64.130
 Lights Internal Gains Nominal, LIVING HARDWIRED LIGHTING3_BACKROW_BOTTOMFLOOR,INTERIORLIGHTINGHE,LIVING_UNIT3_BACKROW_BOTTOMFLOOR,111.52,2.0,141.024,1.265,70.512,0.000,0.600,0.200,0.200,0.000,General,9.695,141.024
 Lights Internal Gains Nominal, LIVING PLUG-IN LIGHTING3_BACKROW_BOTTOMFLOOR,INTERIORLIGHTINGHE,LIVING_UNIT3_BACKROW_BOTTOMFLOOR,111.52,2.0,64.130,0.575,32.065,0.000,0.600,0.200,0.200,0.000,General,4.409,64.130
 Lights Internal Gains Nominal, LIVING HARDWIRED LIGHTING1_FRONTROW_MIDDLEFLOOR,INTERIORLIGHTINGHE,LIVING_UNIT1_FRONTROW_MIDDLEFLOOR,111.52,2.0,141.024,1.265,70.512,0.000,0.600,0.200,0.200,0.000,General,9.695,141.024
 Lights Internal Gains Nominal, LIVING PLUG-IN LIGHTING1_FRONTROW_MIDDLEFLOOR,INTERIORLIGHTINGHE,LIVING_UNIT1_FRONTROW_MIDDLEFLOOR,111.52,2.0,64.130,0.575,32.065,0.000,0.600,0.200,0.200,0.000,General,4.409,64.130
 Lights Internal Gains Nominal, LIVING HARDWIRED LIGHTING2_FRONTROW_MIDDLEFLOOR,INTERIORLIGHTINGHE,LIVING_UNIT2_FRONTROW_MIDDLEFLOOR,111.52,2.0,141.024,1.265,70.512,0.000,0.600,0.200,0.200,0.000,General,9.695,141.024
 Lights Internal Gains Nominal, LIVING PLUG-IN LIGHTING2_FRONTROW_MIDDLEFLOOR,INTERIORLIGHTINGHE,LIVING_UNIT2_FRONTROW_MIDDLEFLOOR,111.52,2.0,64.130,0.575,32.065,0.000,0.600,0.200,0.200,0.000,General,4.409,64.130
 Lights Internal Gains Nominal, LIVING HARDWIRED LIGHTING3_FRONTROW_MIDDLEFLOOR,INTERIORLIGHTINGHE,LIVING_UNIT3_FRONTROW_MIDDLEFLOOR,111.52,2.0,141.024,1.265,70.512,0.000,0.600,0.200,0.200,0.000,General,9.695,141.024
 Lights Internal Gains Nominal, LIVING PLUG-IN LIGHTING3_FRONTROW_MIDDLEFLOOR,INTERIORLIGHTINGHE,LIVING_UNIT3_FRONTROW_MIDDLEFLOOR,111.52,2.0,64.130,0.575,32.065,0.000,0.600,0.200,0.200,0.000,General,4.409,64.130
 Lights Internal Gains Nominal, LIVING HARDWIRED LIGHTING1_BACKROW_MIDDLEFLOOR,INTERIORLIGHTINGHE,LIVING_UNIT1_BACKROW_MIDDLEFLOOR,111.52,2.0,141.024,1.265,70.512,0.000,0.600,0.200,0.200,0.000,General,9.695,141.024
 Lights Internal Gains Nominal, LIVING PLUG-IN LIGHTING1_BACKROW_MIDDLEFLOOR,INTERIORLIGHTINGHE,LIVING_UNIT1_BACKROW_MIDDLEFLOOR,111.52,2.0,64.130,0.575,32.065,0.000,0.600,0.200,0.200,0.000,General,4.409,64.130
 Lights Internal Gains Nominal, LIVING HARDWIRED LIGHTING2_BACKROW_MIDDLEFLOOR,INTERIORLIGHTINGHE,LIVING_UNIT2_BACKROW_MIDDLEFLOOR,111.52,2.0,141.024,1.265,70.512,0.000,0.600,0.200,0.200,0.000,General,9.695,141.024
 Lights Internal Gains Nominal, LIVING PLUG-IN LIGHTING2_BACKROW_MIDDLEFLOOR,INTERIORLIGHTINGHE,LIVING_UNIT2_BACKROW_MIDDLEFLOOR,111.52,2.0,64.130,0.575,32.065,0.000,0.600,0.200,0.200,0.000,General,4.409,64.130
 Lights Internal Gains Nominal, LIVING HARDWIRED LIGHTING3_BACKROW_MIDDLEFLOOR,INTERIORLIGHTINGHE,LIVING_UNIT3_BACKROW_MIDDLEFLOOR,111.52,2.0,141.024,1.265,70.512,0.000,0.600,0.200,0.200,0.000,General,9.695,141.024
 Lights Internal Gains Nominal, LIVING PLUG-IN LIGHTING3_BACKROW_MIDDLEFLOOR,INTERIORLIGHTINGHE,LIVING_UNIT3_BACKROW_MIDDLEFLOOR,111.52,2.0,64.130,0.575,32.065,0.000,0.600,0.200,0.200,0.000,General,4.409,64.130
 Lights Internal Gains Nominal, LIVING HARDWIRED LIGHTING1_FRONTROW_TOPFLOOR,INTERIORLIGHTINGHE,LIVING_UNIT1_FRONTROW_TOPFLOOR,111.52,2.0,141.024,1.265,70.512,0.000,0.600,0.200,0.200,0.000,General,9.695,141.024
 Lights Internal Gains Nominal, LIVING PLUG-IN LIGHTING1_FRONTROW_TOPFLOOR,INTERIORLIGHTINGHE,LIVING_UNIT1_FRONTROW_TOPFLOOR,111.52,2.0,64.130,0.575,32.065,0.000,0.600,0.200,0.200,0.000,General,4.409,64.130
 Lights Internal Gains Nominal, LIVING HARDWIRED LIGHTING2_FRONTROW_TOPFLOOR,INTERIORLIGHTINGHE,LIVING_UNIT2_FRONTROW_TOPFLOOR,111.52,2.0,141.024,1.265,70.512,0.000,0.600,0.200,0.200,0.000,General,9.695,141.024
 Lights Internal Gains Nominal, LIVING PLUG-IN LIGHTING2_FRONTROW_TOPFLOOR,INTERIORLIGHTINGHE,LIVING_UNIT2_FRONTROW_TOPFLOOR,111.52,2.0,64.130,0.575,32.065,0.000,0.600,0.200,0.200,0.000,General,4.409,64.130
 Lights Internal Gains Nominal, LIVING HARDWIRED LIGHTING3_FRONTROW_TOPFLOOR,INTERIORLIGHTINGHE,LIVING_UNIT3_FRONTROW_TOPFLOOR,111.52,2.0,141.024,1.265,70.512,0.000,0.600,0.200,0.200,0.000,General,9.695,141.024
 Lights Internal Gains Nominal, LIVING PLUG-IN LIGHTING3_FRONTROW_TOPFLOOR,INTERIORLIGHTINGHE,LIVING_UNIT3_FRONTROW_TOPFLOOR,111.52,2.0,64.130,0.575,32.065,0.000,0.600,0.200,0.200,0.000,General,4.409,64.130
 Lights Internal Gains Nominal, LIVING HARDWIRED LIGHTING1_BACKROW_TOPFLOOR,INTERIORLIGHTINGHE,LIVING_UNIT1_BACKROW_TOPFLOOR,111.52,2.0,141.024,1.265,70.512,0.000,0.600,0.200,0.200,0.000,General,9.695,141.024
 Lights Internal Gains Nominal, LIVING PLUG-IN LIGHTING1_BACKROW_TOPFLOOR,INTERIORLIGHTINGHE,LIVING_UNIT1_BACKROW_TOPFLOOR,111.52,2.0,64.130,0.575,32.065,0.000,0.600,0.200,0.200,0.000,General,4.409,64.130
 Lights Internal Gains Nominal, LIVING HARDWIRED LIGHTING2_BACKROW_TOPFLOOR,INTERIORLIGHTINGHE,LIVING_UNIT2_BACKROW_TOPFLOOR,111.52,2.0,141.024,1.265,70.512,0.000,0.600,0.200,0.200,0.000,General,9.695,141.024
 Lights Internal Gains Nominal, LIVING PLUG-IN LIGHTING2_BACKROW_TOPFLOOR,INTERIORLIGHTINGHE,LIVING_UNIT2_BACKROW_TOPFLOOR,111.52,2.0,64.130,0.575,32.065,0.000,0.600,0.200,0.200,0.000,General,4.409,64.130
 Lights Internal Gains Nominal, LIVING HARDWIRED LIGHTING3_BACKROW_TOPFLOOR,INTERIORLIGHTINGHE,LIVING_UNIT3_BACKROW_TOPFLOOR,111.52,2.0,141.024,1.265,70.512,0.000,0.600,0.200,0.200,0.000,General,9.695,141.024
 Lights Internal Gains Nominal, LIVING PLUG-IN LIGHTING3_BACKROW_TOPFLOOR,INTERIORLIGHTINGHE,LIVING_UNIT3_BACKROW_TOPFLOOR,111.52,2.0,64.130,0.575,32.065,0.000,0.600,0.200,0.200,0.000,General,4.409,64.130
! <ElectricEquipment Internal Gains Nominal>,Name,Schedule Name,Zone Name,Zone Floor Area {m2},# Zone Occupants,Equipment Level {W},Equipment/Floor Area {W/m2},Equipment per person {W/person},Fraction Latent,Fraction Radiant,Fraction Lost,Fraction Convected,End-Use SubCategory,Nominal Minimum Equipment Level {W},Nominal Maximum Equipment Level {W}
 ElectricEquipment Internal Gains Nominal, DISHWASHER1_FRONTROW_BOTTOMFLOOR,DISHWASHER,LIVING_UNIT1_FRONTROW_BOTTOMFLOOR,111.52,2.0,54.754,0.491,27.377,0.150,0.600,0.250,0.000,dishwasher,0.000,48.896
 ElectricEquipment Internal Gains Nominal, REFRIGERATOR1_FRONTROW_BOTTOMFLOOR,REFRIGERATOR,LIVING_UNIT1_FRONTROW_BOTTOMFLOOR,111.52,2.0,91.058,0.816,45.529,0.000,1.000,0.000,0.000,refrigerator,66.598,91.058
 ElectricEquipment Internal Gains Nominal, CLOTHESWASHER1_FRONTROW_BOTTOMFLOOR,CLOTHESWASHER,LIVING_UNIT1_FRONTROW_BOTTOMFLOOR,111.52,2.0,23.732,0.213,11.866,0.000,0.800,0.200,0.000,clotheswasher,0.000,21.193
 ElectricEquipment Internal Gains Nominal, GAS_DRYER1_FRONTROW_BOTTOMFLOOR,CLOTHESDRYER,LIVING_UNIT1_FRONTROW_BOTTOMFLOOR,111.52,2.0,16.178,0.145,8.089,0.000,1.000,0.000,0.000,gas_dryer,0.000,16.178
 ElectricEquipment Internal Gains Nominal, GAS_RANGE1_FRONTROW_BOTTOMFLOOR,COOKINGRANGE,LIVING_UNIT1_FRONTROW_BOTTOMFLOOR,111.52,2.0,0.000,0.000,0.000,0.000,1.000,0.000,0.000,gas_range,0.000,0.000
 ElectricEquipment Internal Gains Nominal, TELEVISION1_FRONTROW_BOTTOMFLOOR,INTERIORLIGHTING,LIVING_UNIT1_FRONTROW_BOTTOMFLOOR,111.52,2.0,0.000,0.000,0.000,0.000,1.000,0.000,0.000,television,0.000,0.000
 ElectricEquipment Internal Gains Nominal, GAS_MELS1_FRONTROW_BOTTOMFLOOR,MISCPLUGLOAD,LIVING_UNIT1_FRONTROW_BOTTOMFLOOR,111.52,2.0,393.691,3.530,196.845,6.000E-002,0.690,0.250,0.000,gas_mels,203.547,393.691
 ElectricEquipment Internal Gains Nominal, IECC_ADJ1_FRONTROW_BOTTOMFLOOR,MISCPLUGLOAD,LIVING_UNIT1_FRONTROW_BOTTOMFLOOR,111.52,2.0,163.062,1.462,81.531,6.244E-002,0.412,0.251,0.275,IECC_adj,84.307,163.062
 ElectricEquipment Internal Gains Nominal, DISHWASHER2_FRONTROW_BOTTOMFLOOR,DISHWASHER,LIVING_UNIT2_FRONTROW_BOTTOMFLOOR,111.52,2.0,54.754,0.491,27.377,0.150,0.600,0.250,0.000,dishwasher,0.000,48.896
 ElectricEquipment Internal Gains Nominal, REFRIGERATOR2_FRONTROW_BOTTOMFLOOR,REFRIGERATOR,LIVING_UNIT2_FRONTROW_BOTTOMFLOOR,111.52,2.0,91.058,0.816,45.529,0.000,1.000,0.000,0.000,refrigerator,66.598,91.058
 ElectricEquipment Internal Gains Nominal, CLOTHESWASHER2_FRONTROW_BOTTOMFLOOR,CLOTHESWASHER,LIVING_UNIT2_FRONTROW_BOTTOMFLOOR,111.52,2.0,23.732,0.213,11.866,0.000,0.800,0.200,0.000,clotheswasher,0.000,21.193
 ElectricEquipment Internal Gains Nominal, GAS_DRYER2_FRONTROW_BOTTOMFLOOR,CLOTHESDRYER,LIVING_UNIT2_FRONTROW_BOTTOMFLOOR,111.52,2.0,16.178,0.145,8.089,0.000,1.000,0.000,0.000,gas_dryer,0.000,16.178
 ElectricEquipment Internal Gains Nominal, GAS_RANGE2_FRONTROW_BOTTOMFLOOR,COOKINGRANGE,LIVING_UNIT2_FRONTROW_BOTTOMFLOOR,111.52,2.0,0.000,0.000,0.000,0.000,1.000,0.000,0.000,gas_range,0.000,0.000
 ElectricEquipment Internal Gains Nominal, TELEVISION2_FRONTROW_BOTTOMFLOOR,INTERIORLIGHTING,LIVING_UNIT2_FRONTROW_BOTTOMFLOOR,111.52,2.0,0.000,0.000,0.000,0.000,1.000,0.000,0.000,television,0.000,0.000
 ElectricEquipment Internal Gains Nominal, GAS_MELS2_FRONTROW_BOTTOMFLOOR,MISCPLUGLOAD,LIVING_UNIT2_FRONTROW_BOTTOMFLOOR,111.52,2.0,393.691,3.530,196.845,6.000E-002,0.690,0.250,0.000,gas_mels,203.547,393.691
 ElectricEquipment Internal Gains Nominal, IECC_ADJ2_FRONTROW_BOTTOMFLOOR,MISCPLUGLOAD,LIVING_UNIT2_FRONTROW_BOTTOMFLOOR,111.52,2.0,163.062,1.462,81.531,6.244E-002,0.412,0.251,0.275,IECC_adj,84.307,163.062
 ElectricEquipment Internal Gains Nominal, DISHWASHER3_FRONTROW_BOTTOMFLOOR,DISHWASHER,LIVING_UNIT3_FRONTROW_BOTTOMFLOOR,111.52,2.0,54.754,0.491,27.377,0.150,0.600,0.250,0.000,dishwasher,0.000,48.896
 ElectricEquipment Internal Gains Nominal, REFRIGERATOR3_FRONTROW_BOTTOMFLOOR,REFRIGERATOR,LIVING_UNIT3_FRONTROW_BOTTOMFLOOR,111.52,2.0,91.058,0.816,45.529,0.000,1.000,0.000,0.000,refrigerator,66.598,91.058
 ElectricEquipment Internal Gains Nominal, CLOTHESWASHER3_FRONTROW_BOTTOMFLOOR,CLOTHESWASHER,LIVING_UNIT3_FRONTROW_BOTTOMFLOOR,111.52,2.0,23.732,0.213,11.866,0.000,0.800,0.200,0.000,clotheswasher,0.000,21.193
 ElectricEquipment Internal Gains Nominal, GAS_DRYER3_FRONTROW_BOTTOMFLOOR,CLOTHESDRYER,LIVING_UNIT3_FRONTROW_BOTTOMFLOOR,111.52,2.0,16.178,0.145,8.089,0.000,1.000,0.000,0.000,gas_dryer,0.000,16.178
 ElectricEquipment Internal Gains Nominal, GAS_RANGE3_FRONTROW_BOTTOMFLOOR,COOKINGRANGE,LIVING_UNIT3_FRONTROW_BOTTOMFLOOR,111.52,2.0,0.000,0.000,0.000,0.000,1.000,0.000,0.000,gas_range,0.000,0.000
 ElectricEquipment Internal Gains Nominal, TELEVISION3_FRONTROW_BOTTOMFLOOR,INTERIORLIGHTING,LIVING_UNIT3_FRONTROW_BOTTOMFLOOR,111.52,2.0,0.000,0.000,0.000,0.000,1.000,0.000,0.000,television,0.000,0.000
 ElectricEquipment Internal Gains Nominal, GAS_MELS3_FRONTROW_BOTTOMFLOOR,MISCPLUGLOAD,LIVING_UNIT3_FRONTROW_BOTTOMFLOOR,111.52,2.0,393.691,3.530,196.845,6.000E-002,0.690,0.250,0.000,gas_mels,203.547,393.691
 ElectricEquipment Internal Gains Nominal, IECC_ADJ3_FRONTROW_BOTTOMFLOOR,MISCPLUGLOAD,LIVING_UNIT3_FRONTROW_BOTTOMFLOOR,111.52,2.0,163.062,1.462,81.531,6.244E-002,0.412,0.251,0.275,IECC_adj,84.307,163.062
 ElectricEquipment Internal Gains Nominal, DISHWASHER1_BACKROW_BOTTOMFLOOR,DISHWASHER,LIVING_UNIT1_BACKROW_BOTTOMFLOOR,111.52,2.0,54.754,0.491,27.377,0.150,0.600,0.250,0.000,dishwasher,0.000,48.896
 ElectricEquipment Internal Gains Nominal, REFRIGERATOR1_BACKROW_BOTTOMFLOOR,REFRIGERATOR,LIVING_UNIT1_BACKROW_BOTTOMFLOOR,111.52,2.0,91.058,0.816,45.529,0.000,1.000,0.000,0.000,refrigerator,66.598,91.058
 ElectricEquipment Internal Gains Nominal, CLOTHESWASHER1_BACKROW_BOTTOMFLOOR,CLOTHESWASHER,LIVING_UNIT1_BACKROW_BOTTOMFLOOR,111.52,2.0,23.732,0.213,11.866,0.000,0.800,0.200,0.000,clotheswasher,0.000,21.193
 ElectricEquipment Internal Gains Nominal, GAS_DRYER1_BACKROW_BOTTOMFLOOR,CLOTHESDRYER,LIVING_UNIT1_BACKROW_BOTTOMFLOOR,111.52,2.0,16.178,0.145,8.089,0.000,1.000,0.000,0.000,gas_dryer,0.000,16.178
 ElectricEquipment Internal Gains Nominal, GAS_RANGE1_BACKROW_BOTTOMFLOOR,COOKINGRANGE,LIVING_UNIT1_BACKROW_BOTTOMFLOOR,111.52,2.0,0.000,0.000,0.000,0.000,1.000,0.000,0.000,gas_range,0.000,0.000
 ElectricEquipment Internal Gains Nominal, TELEVISION1_BACKROW_BOTTOMFLOOR,INTERIORLIGHTING,LIVING_UNIT1_BACKROW_BOTTOMFLOOR,111.52,2.0,0.000,0.000,0.000,0.000,1.000,0.000,0.000,television,0.000,0.000
 ElectricEquipment Internal Gains Nominal, GAS_MELS1_BACKROW_BOTTOMFLOOR,MISCPLUGLOAD,LIVING_UNIT1_BACKROW_BOTTOMFLOOR,111.52,2.0,393.691,3.530,196.845,6.000E-002,0.690,0.250,0.000,gas_mels,203.547,393.691
 ElectricEquipment Internal Gains Nominal, IECC_ADJ1_BACKROW_BOTTOMFLOOR,MISCPLUGLOAD,LIVING_UNIT1_BACKROW_BOTTOMFLOOR,111.52,2.0,163.062,1.462,81.531,6.244E-002,0.412,0.251,0.275,IECC_adj,84.307,163.062
 ElectricEquipment Internal Gains Nominal, DISHWASHER2_BACKROW_BOTTOMFLOOR,DISHWASHER,LIVING_UNIT2_BACKROW_BOTTOMFLOOR,111.52,2.0,54.754,0.491,27.377,0.150,0.600,0.250,0.000,dishwasher,0.000,48.896
 ElectricEquipment Internal Gains Nominal, REFRIGERATOR2_BACKROW_BOTTOMFLOOR,REFRIGERATOR,LIVING_UNIT2_BACKROW_BOTTOMFLOOR,111.52,2.0,91.058,0.816,45.529,0.000,1.000,0.000,0.000,refrigerator,66.598,91.058
 ElectricEquipment Internal Gains Nominal, CLOTHESWASHER2_BACKROW_BOTTOMFLOOR,CLOTHESWASHER,LIVING_UNIT2_BACKROW_BOTTOMFLOOR,111.52,2.0,23.732,0.213,11.866,0.000,0.800,0.200,0.000,clotheswasher,0.000,21.193
 ElectricEquipment Internal Gains Nominal, GAS_DRYER2_BACKROW_BOTTOMFLOOR,CLOTHESDRYER,LIVING_UNIT2_BACKROW_BOTTOMFLOOR,111.52,2.0,16.178,0.145,8.089,0.000,1.000,0.000,0.000,gas_dryer,0.000,16.178
 ElectricEquipment Internal Gains Nominal, GAS_RANGE2_BACKROW_BOTTOMFLOOR,COOKINGRANGE,LIVING_UNIT2_BACKROW_BOTTOMFLOOR,111.52,2.0,0.000,0.000,0.000,0.000,1.000,0.000,0.000,gas_range,0.000,0.000
 ElectricEquipment Internal Gains Nominal, TELEVISION2_BACKROW_BOTTOMFLOOR,INTERIORLIGHTING,LIVING_UNIT2_BACKROW_BOTTOMFLOOR,111.52,2.0,0.000,0.000,0.000,0.000,1.000,0.000,0.000,television,0.000,0.000
 ElectricEquipment Internal Gains Nominal, GAS_MELS2_BACKROW_BOTTOMFLOOR,MISCPLUGLOAD,LIVING_UNIT2_BACKROW_BOTTOMFLOOR,111.52,2.0,393.691,3.530,196.845,6.000E-002,0.690,0.250,0.000,gas_mels,203.547,393.691
 ElectricEquipment Internal Gains Nominal, IECC_ADJ2_BACKROW_BOTTOMFLOOR,MISCPLUGLOAD,LIVING_UNIT2_BACKROW_BOTTOMFLOOR,111.52,2.0,163.062,1.462,81.531,6.244E-002,0.412,0.251,0.275,IECC_adj,84.307,163.062
 ElectricEquipment Internal Gains Nominal, DISHWASHER3_BACKROW_BOTTOMFLOOR,DISHWASHER,LIVING_UNIT3_BACKROW_BOTTOMFLOOR,111.52,2.0,54.754,0.491,27.377,0.150,0.600,0.250,0.000,dishwasher,0.000,48.896
 ElectricEquipment Internal Gains Nominal, REFRIGERATOR3_BACKROW_BOTTOMFLOOR,REFRIGERATOR,LIVING_UNIT3_BACKROW_BOTTOMFLOOR,111.52,2.0,91.058,0.816,45.529,0.000,1.000,0.000,0.000,refrigerator,66.598,91.058
 ElectricEquipment Internal Gains Nominal, CLOTHESWASHER3_BACKROW_BOTTOMFLOOR,CLOTHESWASHER,LIVING_UNIT3_BACKROW_BOTTOMFLOOR,111.52,2.0,23.732,0.213,11.866,0.000,0.800,0.200,0.000,clotheswasher,0.000,21.193
 ElectricEquipment Internal Gains Nominal, GAS_DRYER3_BACKROW_BOTTOMFLOOR,CLOTHESDRYER,LIVING_UNIT3_BACKROW_BOTTOMFLOOR,111.52,2.0,16.178,0.145,8.089,0.000,1.000,0.000,0.000,gas_dryer,0.000,16.178
 ElectricEquipment Internal Gains Nominal, GAS_RANGE3_BACKROW_BOTTOMFLOOR,COOKINGRANGE,LIVING_UNIT3_BACKROW_BOTTOMFLOOR,111.52,2.0,0.000,0.000,0.000,0.000,1.000,0.000,0.000,gas_range,0.000,0.000
 ElectricEquipment Internal Gains Nominal, TELEVISION3_BACKROW_BOTTOMFLOOR,INTERIORLIGHTING,LIVING_UNIT3_BACKROW_BOTTOMFLOOR,111.52,2.0,0.000,0.000,0.000,0.000,1.000,0.000,0.000,television,0.000,0.000
 ElectricEquipment Internal Gains Nominal, GAS_MELS3_BACKROW_BOTTOMFLOOR,MISCPLUGLOAD,LIVING_UNIT3_BACKROW_BOTTOMFLOOR,111.52,2.0,393.691,3.530,196.845,6.000E-002,0.690,0.250,0.000,gas_mels,203.547,393.691
 ElectricEquipment Internal Gains Nominal, IECC_ADJ3_BACKROW_BOTTOMFLOOR,MISCPLUGLOAD,LIVING_UNIT3_BACKROW_BOTTOMFLOOR,111.52,2.0,163.062,1.462,81.531,6.244E-002,0.412,0.251,0.275,IECC_adj,84.307,163.062
 ElectricEquipment Internal Gains Nominal, DISHWASHER1_FRONTROW_MIDDLEFLOOR,DISHWASHER,LIVING_UNIT1_FRONTROW_MIDDLEFLOOR,111.52,2.0,54.754,0.491,27.377,0.150,0.600,0.250,0.000,dishwasher,0.000,48.896
 ElectricEquipment Internal Gains Nominal, REFRIGERATOR1_FRONTROW_MIDDLEFLOOR,REFRIGERATOR,LIVING_UNIT1_FRONTROW_MIDDLEFLOOR,111.52,2.0,91.058,0.816,45.529,0.000,1.000,0.000,0.000,refrigerator,66.598,91.058
 ElectricEquipment Internal Gains Nominal, CLOTHESWASHER1_FRONTROW_MIDDLEFLOOR,CLOTHESWASHER,LIVING_UNIT1_FRONTROW_MIDDLEFLOOR,111.52,2.0,23.732,0.213,11.866,0.000,0.800,0.200,0.000,clotheswasher,0.000,21.193
 ElectricEquipment Internal Gains Nominal, GAS_DRYER1_FRONTROW_MIDDLEFLOOR,CLOTHESDRYER,LIVING_UNIT1_FRONTROW_MIDDLEFLOOR,111.52,2.0,16.178,0.145,8.089,0.000,1.000,0.000,0.000,gas_dryer,0.000,16.178
 ElectricEquipment Internal Gains Nominal, GAS_RANGE1_FRONTROW_MIDDLEFLOOR,COOKINGRANGE,LIVING_UNIT1_FRONTROW_MIDDLEFLOOR,111.52,2.0,0.000,0.000,0.000,0.000,1.000,0.000,0.000,gas_range,0.000,0.000
 ElectricEquipment Internal Gains Nominal, TELEVISION1_FRONTROW_MIDDLEFLOOR,INTERIORLIGHTING,LIVING_UNIT1_FRONTROW_MIDDLEFLOOR,111.52,2.0,0.000,0.000,0.000,0.000,1.000,0.000,0.000,television,0.000,0.000
 ElectricEquipment Internal Gains Nominal, GAS_MELS1_FRONTROW_MIDDLEFLOOR,MISCPLUGLOAD,LIVING_UNIT1_FRONTROW_MIDDLEFLOOR,111.52,2.0,393.691,3.530,196.845,6.000E-002,0.690,0.250,0.000,gas_mels,203.547,393.691
 ElectricEquipment Internal Gains Nominal, IECC_ADJ1_FRONTROW_MIDDLEFLOOR,MISCPLUGLOAD,LIVING_UNIT1_FRONTROW_MIDDLEFLOOR,111.52,2.0,163.062,1.462,81.531,6.244E-002,0.412,0.251,0.275,IECC_adj,84.307,163.062
 ElectricEquipment Internal Gains Nominal, DISHWASHER2_FRONTROW_MIDDLEFLOOR,DISHWASHER,LIVING_UNIT2_FRONTROW_MIDDLEFLOOR,111.52,2.0,54.754,0.491,27.377,0.150,0.600,0.250,0.000,dishwasher,0.000,48.896
 ElectricEquipment Internal Gains Nominal, REFRIGERATOR2_FRONTROW_MIDDLEFLOOR,REFRIGERATOR,LIVING_UNIT2_FRONTROW_MIDDLEFLOOR,111.52,2.0,91.058,0.816,45.529,0.000,1.000,0.000,0.000,refrigerator,66.598,91.058
 ElectricEquipment Internal Gains Nominal, CLOTHESWASHER2_FRONTROW_MIDDLEFLOOR,CLOTHESWASHER,LIVING_UNIT2_FRONTROW_MIDDLEFLOOR,111.52,2.0,23.732,0.213,11.866,0.000,0.800,0.200,0.000,clotheswasher,0.000,21.193
 ElectricEquipment Internal Gains Nominal, GAS_DRYER2_FRONTROW_MIDDLEFLOOR,CLOTHESDRYER,LIVING_UNIT2_FRONTROW_MIDDLEFLOOR,111.52,2.0,16.178,0.145,8.089,0.000,1.000,0.000,0.000,gas_dryer,0.000,16.178
 ElectricEquipment Internal Gains Nominal, GAS_RANGE2_FRONTROW_MIDDLEFLOOR,COOKINGRANGE,LIVING_UNIT2_FRONTROW_MIDDLEFLOOR,111.52,2.0,0.000,0.000,0.000,0.000,1.000,0.000,0.000,gas_range,0.000,0.000
 ElectricEquipment Internal Gains Nominal, TELEVISION2_FRONTROW_MIDDLEFLOOR,INTERIORLIGHTING,LIVING_UNIT2_FRONTROW_MIDDLEFLOOR,111.52,2.0,0.000,0.000,0.000,0.000,1.000,0.000,0.000,television,0.000,0.000
 ElectricEquipment Internal Gains Nominal, GAS_MELS2_FRONTROW_MIDDLEFLOOR,MISCPLUGLOAD,LIVING_UNIT2_FRONTROW_MIDDLEFLOOR,111.52,2.0,393.691,3.530,196.845,6.000E-002,0.690,0.250,0.000,gas_mels,203.547,393.691
 ElectricEquipment Internal Gains Nominal, IECC_ADJ2_FRONTROW_MIDDLEFLOOR,MISCPLUGLOAD,LIVING_UNIT2_FRONTROW_MIDDLEFLOOR,111.52,2.0,163.062,1.462,81.531,6.244E-002,0.412,0.251,0.275,IECC_adj,84.307,163.062
 ElectricEquipment Internal Gains Nominal, DISHWASHER3_FRONTROW_MIDDLEFLOOR,DISHWASHER,LIVING_UNIT3_FRONTROW_MIDDLEFLOOR,111.52,2.0,54.754,0.491,27.377,0.150,0.600,0.250,0.000,dishwasher,0.000,48.896
 ElectricEquipment Internal Gains Nominal, REFRIGERATOR3_FRONTROW_MIDDLEFLOOR,REFRIGERATOR,LIVING_UNIT3_FRONTROW_MIDDLEFLOOR,111.52,2.0,91.058,0.816,45.529,0.000,1.000,0.000,0.000,refrigerator,66.598,91.058
 ElectricEquipment Internal Gains Nominal, CLOTHESWASHER3_FRONTROW_MIDDLEFLOOR,CLOTHESWASHER,LIVING_UNIT3_FRONTROW_MIDDLEFLOOR,111.52,2.0,23.732,0.213,11.866,0.000,0.800,0.200,0.000,clotheswasher,0.000,21.193
 ElectricEquipment Internal Gains Nominal, GAS_DRYER3_FRONTROW_MIDDLEFLOOR,CLOTHESDRYER,LIVING_UNIT3_FRONTROW_MIDDLEFLOOR,111.52,2.0,16.178,0.145,8.089,0.000,1.000,0.000,0.000,gas_dryer,0.000,16.178
 ElectricEquipment Internal Gains Nominal, GAS_RANGE3_FRONTROW_MIDDLEFLOOR,COOKINGRANGE,LIVING_UNIT3_FRONTROW_MIDDLEFLOOR,111.52,2.0,0.000,0.000,0.000,0.000,1.000,0.000,0.000,gas_range,0.000,0.000
 ElectricEquipment Internal Gains Nominal, TELEVISION3_FRONTROW_MIDDLEFLOOR,INTERIORLIGHTING,LIVING_UNIT3_FRONTROW_MIDDLEFLOOR,111.52,2.0,0.000,0.000,0.000,0.000,1.000,0.000,0.000,television,0.000,0.000
 ElectricEquipment Internal Gains Nominal, GAS_MELS3_FRONTROW_MIDDLEFLOOR,MISCPLUGLOAD,LIVING_UNIT3_FRONTROW_MIDDLEFLOOR,111.52,2.0,393.691,3.530,196.845,6.000E-002,0.690,0.250,0.000,gas_mels,203.547,393.691
 ElectricEquipment Internal Gains Nominal, IECC_ADJ3_FRONTROW_MIDDLEFLOOR,MISCPLUGLOAD,LIVING_UNIT3_FRONTROW_MIDDLEFLOOR,111.52,2.0,163.062,1.462,81.531,6.244E-002,0.412,0.251,0.275,IECC_adj,84.307,163.062
 ElectricEquipment Internal Gains Nominal, DISHWASHER1_BACKROW_MIDDLEFLOOR,DISHWASHER,LIVING_UNIT1_BACKROW_MIDDLEFLOOR,111.52,2.0,54.754,0.491,27.377,0.150,0.600,0.250,0.000,dishwasher,0.000,48.896
 ElectricEquipment Internal Gains Nominal, REFRIGERATOR1_BACKROW_MIDDLEFLOOR,REFRIGERATOR,LIVING_UNIT1_BACKROW_MIDDLEFLOOR,111.52,2.0,91.058,0.816,45.529,0.000,1.000,0.000,0.000,refrigerator,66.598,91.058
 ElectricEquipment Internal Gains Nominal, CLOTHESWASHER1_BACKROW_MIDDLEFLOOR,CLOTHESWASHER,LIVING_UNIT1_BACKROW_MIDDLEFLOOR,111.52,2.0,23.732,0.213,11.866,0.000,0.800,0.200,0.000,clotheswasher,0.000,21.193
 ElectricEquipment Internal Gains Nominal, GAS_DRYER1_BACKROW_MIDDLEFLOOR,CLOTHESDRYER,LIVING_UNIT1_BACKROW_MIDDLEFLOOR,111.52,2.0,16.178,0.145,8.089,0.000,1.000,0.000,0.000,gas_dryer,0.000,16.178
 ElectricEquipment Internal Gains Nominal, GAS_RANGE1_BACKROW_MIDDLEFLOOR,COOKINGRANGE,LIVING_UNIT1_BACKROW_MIDDLEFLOOR,111.52,2.0,0.000,0.000,0.000,0.000,1.000,0.000,0.000,gas_range,0.000,0.000
 ElectricEquipment Internal Gains Nominal, TELEVISION1_BACKROW_MIDDLEFLOOR,INTERIORLIGHTING,LIVING_UNIT1_BACKROW_MIDDLEFLOOR,111.52,2.0,0.000,0.000,0.000,0.000,1.000,0.000,0.000,television,0.000,0.000
 ElectricEquipment Internal Gains Nominal, GAS_MELS1_BACKROW_MIDDLEFLOOR,MISCPLUGLOAD,LIVING_UNIT1_BACKROW_MIDDLEFLOOR,111.52,2.0,393.691,3.530,196.845,6.000E-002,0.690,0.250,0.000,gas_mels,203.547,393.691
 ElectricEquipment Internal Gains Nominal, IECC_ADJ1_BACKROW_MIDDLEFLOOR,MISCPLUGLOAD,LIVING_UNIT1_BACKROW_MIDDLEFLOOR,111.52,2.0,163.062,1.462,81.531,6.244E-002,0.412,0.251,0.275,IECC_adj,84.307,163.062
 ElectricEquipment Internal Gains Nominal, DISHWASHER2_BACKROW_MIDDLEFLOOR,DISHWASHER,LIVING_UNIT2_BACKROW_MIDDLEFLOOR,111.52,2.0,54.754,0.491,27.377,0.150,0.600,0.250,0.000,dishwasher,0.000,48.896
 ElectricEquipment Internal Gains Nominal, REFRIGERATOR2_BACKROW_MIDDLEFLOOR,REFRIGERATOR,LIVING_UNIT2_BACKROW_MIDDLEFLOOR,111.52,2.0,91.058,0.816,45.529,0.000,1.000,0.000,0.000,refrigerator,66.598,91.058
 ElectricEquipment Internal Gains Nominal, CLOTHESWASHER2_BACKROW_MIDDLEFLOOR,CLOTHESWASHER,LIVING_UNIT2_BACKROW_MIDDLEFLOOR,111.52,2.0,23.732,0.213,11.866,0.000,0.800,0.200,0.000,clotheswasher,0.000,21.193
 ElectricEquipment Internal Gains Nominal, GAS_DRYER2_BACKROW_MIDDLEFLOOR,CLOTHESDRYER,LIVING_UNIT2_BACKROW_MIDDLEFLOOR,111.52,2.0,16.178,0.145,8.089,0.000,1.000,0.000,0.000,gas_dryer,0.000,16.178
 ElectricEquipment Internal Gains Nominal, GAS_RANGE2_BACKROW_MIDDLEFLOOR,COOKINGRANGE,LIVING_UNIT2_BACKROW_MIDDLEFLOOR,111.52,2.0,0.000,0.000,0.000,0.000,1.000,0.000,0.000,gas_range,0.000,0.000
 ElectricEquipment Internal Gains Nominal, TELEVISION2_BACKROW_MIDDLEFLOOR,INTERIORLIGHTING,LIVING_UNIT2_BACKROW_MIDDLEFLOOR,111.52,2.0,0.000,0.000,0.000,0.000,1.000,0.000,0.000,television,0.000,0.000
 ElectricEquipment Internal Gains Nominal, GAS_MELS2_BACKROW_MIDDLEFLOOR,MISCPLUGLOAD,LIVING_UNIT2_BACKROW_MIDDLEFLOOR,111.52,2.0,393.691,3.530,196.845,6.000E-002,0.690,0.250,0.000,gas_mels,203.547,393.691
 ElectricEquipment Internal Gains Nominal, IECC_ADJ2_BACKROW_MIDDLEFLOOR,MISCPLUGLOAD,LIVING_UNIT2_BACKROW_MIDDLEFLOOR,111.52,2.0,163.062,1.462,81.531,6.244E-002,0.412,0.251,0.275,IECC_adj,84.307,163.062
 ElectricEquipment Internal Gains Nominal, DISHWASHER3_BACKROW_MIDDLEFLOOR,DISHWASHER,LIVING_UNIT3_BACKROW_MIDDLEFLOOR,111.52,2.0,54.754,0.491,27.377,0.150,0.600,0.250,0.000,dishwasher,0.000,48.896
 ElectricEquipment Internal Gains Nominal, REFRIGERATOR3_BACKROW_MIDDLEFLOOR,REFRIGERATOR,LIVING_UNIT3_BACKROW_MIDDLEFLOOR,111.52,2.0,91.058,0.816,45.529,0.000,1.000,0.000,0.000,refrigerator,66.598,91.058
 ElectricEquipment Internal Gains Nominal, CLOTHESWASHER3_BACKROW_MIDDLEFLOOR,CLOTHESWASHER,LIVING_UNIT3_BACKROW_MIDDLEFLOOR,111.52,2.0,23.732,0.213,11.866,0.000,0.800,0.200,0.000,clotheswasher,0.000,21.193
 ElectricEquipment Internal Gains Nominal, GAS_DRYER3_BACKROW_MIDDLEFLOOR,CLOTHESDRYER,LIVING_UNIT3_BACKROW_MIDDLEFLOOR,111.52,2.0,16.178,0.145,8.089,0.000,1.000,0.000,0.000,gas_dryer,0.000,16.178
 ElectricEquipment Internal Gains Nominal, GAS_RANGE3_BACKROW_MIDDLEFLOOR,COOKINGRANGE,LIVING_UNIT3_BACKROW_MIDDLEFLOOR,111.52,2.0,0.000,0.000,0.000,0.000,1.000,0.000,0.000,gas_range,0.000,0.000
 ElectricEquipment Internal Gains Nominal, TELEVISION3_BACKROW_MIDDLEFLOOR,INTERIORLIGHTING,LIVING_UNIT3_BACKROW_MIDDLEFLOOR,111.52,2.0,0.000,0.000,0.000,0.000,1.000,0.000,0.000,television,0.000,0.000
 ElectricEquipment Internal Gains Nominal, GAS_MELS3_BACKROW_MIDDLEFLOOR,MISCPLUGLOAD,LIVING_UNIT3_BACKROW_MIDDLEFLOOR,111.52,2.0,393.691,3.530,196.845,6.000E-002,0.690,0.250,0.000,gas_mels,203.547,393.691
 ElectricEquipment Internal Gains Nominal, IECC_ADJ3_BACKROW_MIDDLEFLOOR,MISCPLUGLOAD,LIVING_UNIT3_BACKROW_MIDDLEFLOOR,111.52,2.0,163.062,1.462,81.531,6.244E-002,0.412,0.251,0.275,IECC_adj,84.307,163.062
 ElectricEquipment Internal Gains Nominal, DISHWASHER1_FRONTROW_TOPFLOOR,DISHWASHER,LIVING_UNIT1_FRONTROW_TOPFLOOR,111.52,2.0,54.754,0.491,27.377,0.150,0.600,0.250,0.000,dishwasher,0.000,48.896
 ElectricEquipment Internal Gains Nominal, REFRIGERATOR1_FRONTROW_TOPFLOOR,REFRIGERATOR,LIVING_UNIT1_FRONTROW_TOPFLOOR,111.52,2.0,91.058,0.816,45.529,0.000,1.000,0.000,0.000,refrigerator,66.598,91.058
 ElectricEquipment Internal Gains Nominal, CLOTHESWASHER1_FRONTROW_TOPFLOOR,CLOTHESWASHER,LIVING_UNIT1_FRONTROW_TOPFLOOR,111.52,2.0,23.732,0.213,11.866,0.000,0.800,0.200,0.000,clotheswasher,0.000,21.193
 ElectricEquipment Internal Gains Nominal, GAS_DRYER1_FRONTROW_TOPFLOOR,CLOTHESDRYER,LIVING_UNIT1_FRONTROW_TOPFLOOR,111.52,2.0,16.178,0.145,8.089,0.000,1.000,0.000,0.000,gas_dryer,0.000,16.178
 ElectricEquipment Internal Gains Nominal, GAS_RANGE1_FRONTROW_TOPFLOOR,COOKINGRANGE,LIVING_UNIT1_FRONTROW_TOPFLOOR,111.52,2.0,0.000,0.000,0.000,0.000,1.000,0.000,0.000,gas_range,0.000,0.000
 ElectricEquipment Internal Gains Nominal, TELEVISION1_FRONTROW_TOPFLOOR,INTERIORLIGHTING,LIVING_UNIT1_FRONTROW_TOPFLOOR,111.52,2.0,0.000,0.000,0.000,0.000,1.000,0.000,0.000,television,0.000,0.000
 ElectricEquipment Internal Gains Nominal, GAS_MELS1_FRONTROW_TOPFLOOR,MISCPLUGLOAD,LIVING_UNIT1_FRONTROW_TOPFLOOR,111.52,2.0,393.691,3.530,196.845,6.000E-002,0.690,0.250,0.000,gas_mels,203.547,393.691
 ElectricEquipment Internal Gains Nominal, IECC_ADJ1_FRONTROW_TOPFLOOR,MISCPLUGLOAD,LIVING_UNIT1_FRONTROW_TOPFLOOR,111.52,2.0,163.062,1.462,81.531,6.244E-002,0.412,0.251,0.275,IECC_adj,84.307,163.062
 ElectricEquipment Internal Gains Nominal, DISHWASHER2_FRONTROW_TOPFLOOR,DISHWASHER,LIVING_UNIT2_FRONTROW_TOPFLOOR,111.52,2.0,54.754,0.491,27.377,0.150,0.600,0.250,0.000,dishwasher,0.000,48.896
 ElectricEquipment Internal Gains Nominal, REFRIGERATOR2_FRONTROW_TOPFLOOR,REFRIGERATOR,LIVING_UNIT2_FRONTROW_TOPFLOOR,111.52,2.0,91.058,0.816,45.529,0.000,1.000,0.000,0.000,refrigerator,66.598,91.058
 ElectricEquipment Internal Gains Nominal, CLOTHESWASHER2_FRONTROW_TOPFLOOR,CLOTHESWASHER,LIVING_UNIT2_FRONTROW_TOPFLOOR,111.52,2.0,23.732,0.213,11.866,0.000,0.800,0.200,0.000,clotheswasher,0.000,21.193
 ElectricEquipment Internal Gains Nominal, GAS_DRYER2_FRONTROW_TOPFLOOR,CLOTHESDRYER,LIVING_UNIT2_FRONTROW_TOPFLOOR,111.52,2.0,16.178,0.145,8.089,0.000,1.000,0.000,0.000,gas_dryer,0.000,16.178
 ElectricEquipment Internal Gains Nominal, GAS_RANGE2_FRONTROW_TOPFLOOR,COOKINGRANGE,LIVING_UNIT2_FRONTROW_TOPFLOOR,111.52,2.0,0.000,0.000,0.000,0.000,1.000,0.000,0.000,gas_range,0.000,0.000
 ElectricEquipment Internal Gains Nominal, TELEVISION2_FRONTROW_TOPFLOOR,INTERIORLIGHTING,LIVING_UNIT2_FRONTROW_TOPFLOOR,111.52,2.0,0.000,0.000,0.000,0.000,1.000,0.000,0.000,television,0.000,0.000
 ElectricEquipment Internal Gains Nominal, GAS_MELS2_FRONTROW_TOPFLOOR,MISCPLUGLOAD,LIVING_UNIT2_FRONTROW_TOPFLOOR,111.52,2.0,393.691,3.530,196.845,6.000E-002,0.690,0.250,0.000,gas_mels,203.547,393.691
 ElectricEquipment Internal Gains Nominal, IECC_ADJ2_FRONTROW_TOPFLOOR,MISCPLUGLOAD,LIVING_UNIT2_FRONTROW_TOPFLOOR,111.52,2.0,163.062,1.462,81.531,6.244E-002,0.412,0.251,0.275,IECC_adj,84.307,163.062
 ElectricEquipment Internal Gains Nominal, DISHWASHER3_FRONTROW_TOPFLOOR,DISHWASHER,LIVING_UNIT3_FRONTROW_TOPFLOOR,111.52,2.0,54.754,0.491,27.377,0.150,0.600,0.250,0.000,dishwasher,0.000,48.896
 ElectricEquipment Internal Gains Nominal, REFRIGERATOR3_FRONTROW_TOPFLOOR,REFRIGERATOR,LIVING_UNIT3_FRONTROW_TOPFLOOR,111.52,2.0,91.058,0.816,45.529,0.000,1.000,0.000,0.000,refrigerator,66.598,91.058
 ElectricEquipment Internal Gains Nominal, CLOTHESWASHER3_FRONTROW_TOPFLOOR,CLOTHESWASHER,LIVING_UNIT3_FRONTROW_TOPFLOOR,111.52,2.0,23.732,0.213,11.866,0.000,0.800,0.200,0.000,clotheswasher,0.000,21.193
 ElectricEquipment Internal Gains Nominal, GAS_DRYER3_FRONTROW_TOPFLOOR,CLOTHESDRYER,LIVING_UNIT3_FRONTROW_TOPFLOOR,111.52,2.0,16.178,0.145,8.089,0.000,1.000,0.000,0.000,gas_dryer,0.000,16.178
 ElectricEquipment Internal Gains Nominal, GAS_RANGE3_FRONTROW_TOPFLOOR,COOKINGRANGE,LIVING_UNIT3_FRONTROW_TOPFLOOR,111.52,2.0,0.000,0.000,0.000,0.000,1.000,0.000,0.000,gas_range,0.000,0.000
 ElectricEquipment Internal Gains Nominal, TELEVISION3_FRONTROW_TOPFLOOR,INTERIORLIGHTING,LIVING_UNIT3_FRONTROW_TOPFLOOR,111.52,2.0,0.000,0.000,0.000,0.000,1.000,0.000,0.000,television,0.000,0.000
 ElectricEquipment Internal Gains Nominal, GAS_MELS3_FRONTROW_TOPFLOOR,MISCPLUGLOAD,LIVING_UNIT3_FRONTROW_TOPFLOOR,111.52,2.0,393.691,3.530,196.845,6.000E-002,0.690,0.250,0.000,gas_mels,203.547,393.691
 ElectricEquipment Internal Gains Nominal, IECC_ADJ3_FRONTROW_TOPFLOOR,MISCPLUGLOAD,LIVING_UNIT3_FRONTROW_TOPFLOOR,111.52,2.0,163.062,1.462,81.531,6.244E-002,0.412,0.251,0.275,IECC_adj,84.307,163.062
 ElectricEquipment Internal Gains Nominal, DISHWASHER1_BACKROW_TOPFLOOR,DISHWASHER,LIVING_UNIT1_BACKROW_TOPFLOOR,111.52,2.0,54.754,0.491,27.377,0.150,0.600,0.250,0.000,dishwasher,0.000,48.896
 ElectricEquipment Internal Gains Nominal, REFRIGERATOR1_BACKROW_TOPFLOOR,REFRIGERATOR,LIVING_UNIT1_BACKROW_TOPFLOOR,111.52,2.0,91.058,0.816,45.529,0.000,1.000,0.000,0.000,refrigerator,66.598,91.058
 ElectricEquipment Internal Gains Nominal, CLOTHESWASHER1_BACKROW_TOPFLOOR,CLOTHESWASHER,LIVING_UNIT1_BACKROW_TOPFLOOR,111.52,2.0,23.732,0.213,11.866,0.000,0.800,0.200,0.000,clotheswasher,0.000,21.193
 ElectricEquipment Internal Gains Nominal, GAS_DRYER1_BACKROW_TOPFLOOR,CLOTHESDRYER,LIVING_UNIT1_BACKROW_TOPFLOOR,111.52,2.0,16.178,0.145,8.089,0.000,1.000,0.000,0.000,gas_dryer,0.000,16.178
 ElectricEquipment Internal Gains Nominal, GAS_RANGE1_BACKROW_TOPFLOOR,COOKINGRANGE,LIVING_UNIT1_BACKROW_TOPFLOOR,111.52,2.0,0.000,0.000,0.000,0.000,1.000,0.000,0.000,gas_range,0.000,0.000
 ElectricEquipment Internal Gains Nominal, TELEVISION1_BACKROW_TOPFLOOR,INTERIORLIGHTING,LIVING_UNIT1_BACKROW_TOPFLOOR,111.52,2.0,0.000,0.000,0.000,0.000,1.000,0.000,0.000,television,0.000,0.000
 ElectricEquipment Internal Gains Nominal, GAS_MELS1_BACKROW_TOPFLOOR,MISCPLUGLOAD,LIVING_UNIT1_BACKROW_TOPFLOOR,111.52,2.0,393.691,3.530,196.845,6.000E-002,0.690,0.250,0.000,gas_mels,203.547,393.691
 ElectricEquipment Internal Gains Nominal, IECC_ADJ1_BACKROW_TOPFLOOR,MISCPLUGLOAD,LIVING_UNIT1_BACKROW_TOPFLOOR,111.52,2.0,163.062,1.462,81.531,6.244E-002,0.412,0.251,0.275,IECC_adj,84.307,163.062
 ElectricEquipment Internal Gains Nominal, DISHWASHER2_BACKROW_TOPFLOOR,DISHWASHER,LIVING_UNIT2_BACKROW_TOPFLOOR,111.52,2.0,54.754,0.491,27.377,0.150,0.600,0.250,0.000,dishwasher,0.000,48.896
 ElectricEquipment Internal Gains Nominal, REFRIGERATOR2_BACKROW_TOPFLOOR,REFRIGERATOR,LIVING_UNIT2_BACKROW_TOPFLOOR,111.52,2.0,91.058,0.816,45.529,0.000,1.000,0.000,0.000,refrigerator,66.598,91.058
 ElectricEquipment Internal Gains Nominal, CLOTHESWASHER2_BACKROW_TOPFLOOR,CLOTHESWASHER,LIVING_UNIT2_BACKROW_TOPFLOOR,111.52,2.0,23.732,0.213,11.866,0.000,0.800,0.200,0.000,clotheswasher,0.000,21.193
 ElectricEquipment Internal Gains Nominal, GAS_DRYER2_BACKROW_TOPFLOOR,CLOTHESDRYER,LIVING_UNIT2_BACKROW_TOPFLOOR,111.52,2.0,16.178,0.145,8.089,0.000,1.000,0.000,0.000,gas_dryer,0.000,16.178
 ElectricEquipment Internal Gains Nominal, GAS_RANGE2_BACKROW_TOPFLOOR,COOKINGRANGE,LIVING_UNIT2_BACKROW_TOPFLOOR,111.52,2.0,0.000,0.000,0.000,0.000,1.000,0.000,0.000,gas_range,0.000,0.000
 ElectricEquipment Internal Gains Nominal, TELEVISION2_BACKROW_TOPFLOOR,INTERIORLIGHTING,LIVING_UNIT2_BACKROW_TOPFLOOR,111.52,2.0,0.000,0.000,0.000,0.000,1.000,0.000,0.000,television,0.000,0.000
 ElectricEquipment Internal Gains Nominal, GAS_MELS2_BACKROW_TOPFLOOR,MISCPLUGLOAD,LIVING_UNIT2_BACKROW_TOPFLOOR,111.52,2.0,393.691,3.530,196.845,6.000E-002,0.690,0.250,0.000,gas_mels,203.547,393.691
 ElectricEquipment Internal Gains Nominal, IECC_ADJ2_BACKROW_TOPFLOOR,MISCPLUGLOAD,LIVING_UNIT2_BACKROW_TOPFLOOR,111.52,2.0,163.062,1.462,81.531,6.244E-002,0.412,0.251,0.275,IECC_adj,84.307,163.062
 ElectricEquipment Internal Gains Nominal, DISHWASHER3_BACKROW_TOPFLOOR,DISHWASHER,LIVING_UNIT3_BACKROW_TOPFLOOR,111.52,2.0,54.754,0.491,27.377,0.150,0.600,0.250,0.000,dishwasher,0.000,48.896
 ElectricEquipment Internal Gains Nominal, REFRIGERATOR3_BACKROW_TOPFLOOR,REFRIGERATOR,LIVING_UNIT3_BACKROW_TOPFLOOR,111.52,2.0,91.058,0.816,45.529,0.000,1.000,0.000,0.000,refrigerator,66.598,91.058
 ElectricEquipment Internal Gains Nominal, CLOTHESWASHER3_BACKROW_TOPFLOOR,CLOTHESWASHER,LIVING_UNIT3_BACKROW_TOPFLOOR,111.52,2.0,23.732,0.213,11.866,0.000,0.800,0.200,0.000,clotheswasher,0.000,21.193
 ElectricEquipment Internal Gains Nominal, GAS_DRYER3_BACKROW_TOPFLOOR,CLOTHESDRYER,LIVING_UNIT3_BACKROW_TOPFLOOR,111.52,2.0,16.178,0.145,8.089,0.000,1.000,0.000,0.000,gas_dryer,0.000,16.178
 ElectricEquipment Internal Gains Nominal, GAS_RANGE3_BACKROW_TOPFLOOR,COOKINGRANGE,LIVING_UNIT3_BACKROW_TOPFLOOR,111.52,2.0,0.000,0.000,0.000,0.000,1.000,0.000,0.000,gas_range,0.000,0.000
 ElectricEquipment Internal Gains Nominal, TELEVISION3_BACKROW_TOPFLOOR,INTERIORLIGHTING,LIVING_UNIT3_BACKROW_TOPFLOOR,111.52,2.0,0.000,0.000,0.000,0.000,1.000,0.000,0.000,television,0.000,0.000
 ElectricEquipment Internal Gains Nominal, GAS_MELS3_BACKROW_TOPFLOOR,MISCPLUGLOAD,LIVING_UNIT3_BACKROW_TOPFLOOR,111.52,2.0,393.691,3.530,196.845,6.000E-002,0.690,0.250,0.000,gas_mels,203.547,393.691
 ElectricEquipment Internal Gains Nominal, IECC_ADJ3_BACKROW_TOPFLOOR,MISCPLUGLOAD,LIVING_UNIT3_BACKROW_TOPFLOOR,111.52,2.0,163.062,1.462,81.531,6.244E-002,0.412,0.251,0.275,IECC_adj,84.307,163.062
! <GasEquipment Internal Gains Nominal>,Name,Schedule Name,Zone Name,Zone Floor Area {m2},# Zone Occupants,Equipment Level {W},Equipment/Floor Area {W/m2},Equipment per person {W/person},Fraction Latent,Fraction Radiant,Fraction Lost,Fraction Convected,End-Use SubCategory,Nominal Minimum Equipment Level {W},Nominal Maximum Equipment Level {W}
 GasEquipment Internal Gains Nominal, GAS_DRYER1_FRONTROW_BOTTOMFLOOR,CLOTHESDRYER,LIVING_UNIT1_FRONTROW_BOTTOMFLOOR,111.52,2.0,329.788,2.957,164.894,5.000E-002,0.100,0.850,0.000,gas_dryer,0.000,329.788
 GasEquipment Internal Gains Nominal, GAS_RANGE1_FRONTROW_BOTTOMFLOOR,COOKINGRANGE,LIVING_UNIT1_FRONTROW_BOTTOMFLOOR,111.52,2.0,450.784,4.042,225.392,6.000E-002,0.690,0.250,0.000,gas_range,10.614,450.784
 GasEquipment Internal Gains Nominal, GAS_MELS1_FRONTROW_BOTTOMFLOOR,MISCPLUGLOAD,LIVING_UNIT1_FRONTROW_BOTTOMFLOOR,111.52,2.0,47.461,0.426,23.730,6.000E-002,0.690,0.250,0.000,gas_mels,24.538,47.461
 GasEquipment Internal Gains Nominal, GAS_DRYER2_FRONTROW_BOTTOMFLOOR,CLOTHESDRYER,LIVING_UNIT2_FRONTROW_BOTTOMFLOOR,111.52,2.0,329.788,2.957,164.894,5.000E-002,0.100,0.850,0.000,gas_dryer,0.000,329.788
 GasEquipment Internal Gains Nominal, GAS_RANGE2_FRONTROW_BOTTOMFLOOR,COOKINGRANGE,LIVING_UNIT2_FRONTROW_BOTTOMFLOOR,111.52,2.0,450.784,4.042,225.392,6.000E-002,0.690,0.250,0.000,gas_range,10.614,450.784
 GasEquipment Internal Gains Nominal, GAS_MELS2_FRONTROW_BOTTOMFLOOR,MISCPLUGLOAD,LIVING_UNIT2_FRONTROW_BOTTOMFLOOR,111.52,2.0,47.461,0.426,23.730,6.000E-002,0.690,0.250,0.000,gas_mels,24.538,47.461
 GasEquipment Internal Gains Nominal, GAS_DRYER3_FRONTROW_BOTTOMFLOOR,CLOTHESDRYER,LIVING_UNIT3_FRONTROW_BOTTOMFLOOR,111.52,2.0,329.788,2.957,164.894,5.000E-002,0.100,0.850,0.000,gas_dryer,0.000,329.788
 GasEquipment Internal Gains Nominal, GAS_RANGE3_FRONTROW_BOTTOMFLOOR,COOKINGRANGE,LIVING_UNIT3_FRONTROW_BOTTOMFLOOR,111.52,2.0,450.784,4.042,225.392,6.000E-002,0.690,0.250,0.000,gas_range,10.614,450.784
 GasEquipment Internal Gains Nominal, GAS_MELS3_FRONTROW_BOTTOMFLOOR,MISCPLUGLOAD,LIVING_UNIT3_FRONTROW_BOTTOMFLOOR,111.52,2.0,47.461,0.426,23.730,6.000E-002,0.690,0.250,0.000,gas_mels,24.538,47.461
 GasEquipment Internal Gains Nominal, GAS_DRYER1_BACKROW_BOTTOMFLOOR,CLOTHESDRYER,LIVING_UNIT1_BACKROW_BOTTOMFLOOR,111.52,2.0,329.788,2.957,164.894,5.000E-002,0.100,0.850,0.000,gas_dryer,0.000,329.788
 GasEquipment Internal Gains Nominal, GAS_RANGE1_BACKROW_BOTTOMFLOOR,COOKINGRANGE,LIVING_UNIT1_BACKROW_BOTTOMFLOOR,111.52,2.0,450.784,4.042,225.392,6.000E-002,0.690,0.250,0.000,gas_range,10.614,450.784
 GasEquipment Internal Gains Nominal, GAS_MELS1_BACKROW_BOTTOMFLOOR,MISCPLUGLOAD,LIVING_UNIT1_BACKROW_BOTTOMFLOOR,111.52,2.0,47.461,0.426,23.730,6.000E-002,0.690,0.250,0.000,gas_mels,24.538,47.461
 GasEquipment Internal Gains Nominal, GAS_DRYER2_BACKROW_BOTTOMFLOOR,CLOTHESDRYER,LIVING_UNIT2_BACKROW_BOTTOMFLOOR,111.52,2.0,329.788,2.957,164.894,5.000E-002,0.100,0.850,0.000,gas_dryer,0.000,329.788
 GasEquipment Internal Gains Nominal, GAS_RANGE2_BACKROW_BOTTOMFLOOR,COOKINGRANGE,LIVING_UNIT2_BACKROW_BOTTOMFLOOR,111.52,2.0,450.784,4.042,225.392,6.000E-002,0.690,0.250,0.000,gas_range,10.614,450.784
 GasEquipment Internal Gains Nominal, GAS_MELS2_BACKROW_BOTTOMFLOOR,MISCPLUGLOAD,LIVING_UNIT2_BACKROW_BOTTOMFLOOR,111.52,2.0,47.461,0.426,23.730,6.000E-002,0.690,0.250,0.000,gas_mels,24.538,47.461
 GasEquipment Internal Gains Nominal, GAS_DRYER3_BACKROW_BOTTOMFLOOR,CLOTHESDRYER,LIVING_UNIT3_BACKROW_BOTTOMFLOOR,111.52,2.0,329.788,2.957,164.894,5.000E-002,0.100,0.850,0.000,gas_dryer,0.000,329.788
 GasEquipment Internal Gains Nominal, GAS_RANGE3_BACKROW_BOTTOMFLOOR,COOKINGRANGE,LIVING_UNIT3_BACKROW_BOTTOMFLOOR,111.52,2.0,450.784,4.042,225.392,6.000E-002,0.690,0.250,0.000,gas_range,10.614,450.784
 GasEquipment Internal Gains Nominal, GAS_MELS3_BACKROW_BOTTOMFLOOR,MISCPLUGLOAD,LIVING_UNIT3_BACKROW_BOTTOMFLOOR,111.52,2.0,47.461,0.426,23.730,6.000E-002,0.690,0.250,0.000,gas_mels,24.538,47.461
 GasEquipment Internal Gains Nominal, GAS_DRYER1_FRONTROW_MIDDLEFLOOR,CLOTHESDRYER,LIVING_UNIT1_FRONTROW_MIDDLEFLOOR,111.52,2.0,329.788,2.957,164.894,5.000E-002,0.100,0.850,0.000,gas_dryer,0.000,329.788
 GasEquipment Internal Gains Nominal, GAS_RANGE1_FRONTROW_MIDDLEFLOOR,COOKINGRANGE,LIVING_UNIT1_FRONTROW_MIDDLEFLOOR,111.52,2.0,450.784,4.042,225.392,6.000E-002,0.690,0.250,0.000,gas_range,10.614,450.784
 GasEquipment Internal Gains Nominal, GAS_MELS1_FRONTROW_MIDDLEFLOOR,MISCPLUGLOAD,LIVING_UNIT1_FRONTROW_MIDDLEFLOOR,111.52,2.0,47.461,0.426,23.730,6.000E-002,0.690,0.250,0.000,gas_mels,24.538,47.461
 GasEquipment Internal Gains Nominal, GAS_DRYER2_FRONTROW_MIDDLEFLOOR,CLOTHESDRYER,LIVING_UNIT2_FRONTROW_MIDDLEFLOOR,111.52,2.0,329.788,2.957,164.894,5.000E-002,0.100,0.850,0.000,gas_dryer,0.000,329.788
 GasEquipment Internal Gains Nominal, GAS_RANGE2_FRONTROW_MIDDLEFLOOR,COOKINGRANGE,LIVING_UNIT2_FRONTROW_MIDDLEFLOOR,111.52,2.0,450.784,4.042,225.392,6.000E-002,0.690,0.250,0.000,gas_range,10.614,450.784
 GasEquipment Internal Gains Nominal, GAS_MELS2_FRONTROW_MIDDLEFLOOR,MISCPLUGLOAD,LIVING_UNIT2_FRONTROW_MIDDLEFLOOR,111.52,2.0,47.461,0.426,23.730,6.000E-002,0.690,0.250,0.000,gas_mels,24.538,47.461
 GasEquipment Internal Gains Nominal, GAS_DRYER3_FRONTROW_MIDDLEFLOOR,CLOTHESDRYER,LIVING_UNIT3_FRONTROW_MIDDLEFLOOR,111.52,2.0,329.788,2.957,164.894,5.000E-002,0.100,0.850,0.000,gas_dryer,0.000,329.788
 GasEquipment Internal Gains Nominal, GAS_RANGE3_FRONTROW_MIDDLEFLOOR,COOKINGRANGE,LIVING_UNIT3_FRONTROW_MIDDLEFLOOR,111.52,2.0,450.784,4.042,225.392,6.000E-002,0.690,0.250,0.000,gas_range,10.614,450.784
 GasEquipment Internal Gains Nominal, GAS_MELS3_FRONTROW_MIDDLEFLOOR,MISCPLUGLOAD,LIVING_UNIT3_FRONTROW_MIDDLEFLOOR,111.52,2.0,47.461,0.426,23.730,6.000E-002,0.690,0.250,0.000,gas_mels,24.538,47.461
 GasEquipment Internal Gains Nominal, GAS_DRYER1_BACKROW_MIDDLEFLOOR,CLOTHESDRYER,LIVING_UNIT1_BACKROW_MIDDLEFLOOR,111.52,2.0,329.788,2.957,164.894,5.000E-002,0.100,0.850,0.000,gas_dryer,0.000,329.788
 GasEquipment Internal Gains Nominal, GAS_RANGE1_BACKROW_MIDDLEFLOOR,COOKINGRANGE,LIVING_UNIT1_BACKROW_MIDDLEFLOOR,111.52,2.0,450.784,4.042,225.392,6.000E-002,0.690,0.250,0.000,gas_range,10.614,450.784
 GasEquipment Internal Gains Nominal, GAS_MELS1_BACKROW_MIDDLEFLOOR,MISCPLUGLOAD,LIVING_UNIT1_BACKROW_MIDDLEFLOOR,111.52,2.0,47.461,0.426,23.730,6.000E-002,0.690,0.250,0.000,gas_mels,24.538,47.461
 GasEquipment Internal Gains Nominal, GAS_DRYER2_BACKROW_MIDDLEFLOOR,CLOTHESDRYER,LIVING_UNIT2_BACKROW_MIDDLEFLOOR,111.52,2.0,329.788,2.957,164.894,5.000E-002,0.100,0.850,0.000,gas_dryer,0.000,329.788
 GasEquipment Internal Gains Nominal, GAS_RANGE2_BACKROW_MIDDLEFLOOR,COOKINGRANGE,LIVING_UNIT2_BACKROW_MIDDLEFLOOR,111.52,2.0,450.784,4.042,225.392,6.000E-002,0.690,0.250,0.000,gas_range,10.614,450.784
 GasEquipment Internal Gains Nominal, GAS_MELS2_BACKROW_MIDDLEFLOOR,MISCPLUGLOAD,LIVING_UNIT2_BACKROW_MIDDLEFLOOR,111.52,2.0,47.461,0.426,23.730,6.000E-002,0.690,0.250,0.000,gas_mels,24.538,47.461
 GasEquipment Internal Gains Nominal, GAS_DRYER3_BACKROW_MIDDLEFLOOR,CLOTHESDRYER,LIVING_UNIT3_BACKROW_MIDDLEFLOOR,111.52,2.0,329.788,2.957,164.894,5.000E-002,0.100,0.850,0.000,gas_dryer,0.000,329.788
 GasEquipment Internal Gains Nominal, GAS_RANGE3_BACKROW_MIDDLEFLOOR,COOKINGRANGE,LIVING_UNIT3_BACKROW_MIDDLEFLOOR,111.52,2.0,450.784,4.042,225.392,6.000E-002,0.690,0.250,0.000,gas_range,10.614,450.784
 GasEquipment Internal Gains Nominal, GAS_MELS3_BACKROW_MIDDLEFLOOR,MISCPLUGLOAD,LIVING_UNIT3_BACKROW_MIDDLEFLOOR,111.52,2.0,47.461,0.426,23.730,6.000E-002,0.690,0.250,0.000,gas_mels,24.538,47.461
 GasEquipment Internal Gains Nominal, GAS_DRYER1_FRONTROW_TOPFLOOR,CLOTHESDRYER,LIVING_UNIT1_FRONTROW_TOPFLOOR,111.52,2.0,329.788,2.957,164.894,5.000E-002,0.100,0.850,0.000,gas_dryer,0.000,329.788
 GasEquipment Internal Gains Nominal, GAS_RANGE1_FRONTROW_TOPFLOOR,COOKINGRANGE,LIVING_UNIT1_FRONTROW_TOPFLOOR,111.52,2.0,450.784,4.042,225.392,6.000E-002,0.690,0.250,0.000,gas_range,10.614,450.784
 GasEquipment Internal Gains Nominal, GAS_MELS1_FRONTROW_TOPFLOOR,MISCPLUGLOAD,LIVING_UNIT1_FRONTROW_TOPFLOOR,111.52,2.0,47.461,0.426,23.730,6.000E-002,0.690,0.250,0.000,gas_mels,24.538,47.461
 GasEquipment Internal Gains Nominal, GAS_DRYER2_FRONTROW_TOPFLOOR,CLOTHESDRYER,LIVING_UNIT2_FRONTROW_TOPFLOOR,111.52,2.0,329.788,2.957,164.894,5.000E-002,0.100,0.850,0.000,gas_dryer,0.000,329.788
 GasEquipment Internal Gains Nominal, GAS_RANGE2_FRONTROW_TOPFLOOR,COOKINGRANGE,LIVING_UNIT2_FRONTROW_TOPFLOOR,111.52,2.0,450.784,4.042,225.392,6.000E-002,0.690,0.250,0.000,gas_range,10.614,450.784
 GasEquipment Internal Gains Nominal, GAS_MELS2_FRONTROW_TOPFLOOR,MISCPLUGLOAD,LIVING_UNIT2_FRONTROW_TOPFLOOR,111.52,2.0,47.461,0.426,23.730,6.000E-002,0.690,0.250,0.000,gas_mels,24.538,47.461
 GasEquipment Internal Gains Nominal, GAS_DRYER3_FRONTROW_TOPFLOOR,CLOTHESDRYER,LIVING_UNIT3_FRONTROW_TOPFLOOR,111.52,2.0,329.788,2.957,164.894,5.000E-002,0.100,0.850,0.000,gas_dryer,0.000,329.788
 GasEquipment Internal Gains Nominal, GAS_RANGE3_FRONTROW_TOPFLOOR,COOKINGRANGE,LIVING_UNIT3_FRONTROW_TOPFLOOR,111.52,2.0,450.784,4.042,225.392,6.000E-002,0.690,0.250,0.000,gas_range,10.614,450.784
 GasEquipment Internal Gains Nominal, GAS_MELS3_FRONTROW_TOPFLOOR,MISCPLUGLOAD,LIVING_UNIT3_FRONTROW_TOPFLOOR,111.52,2.0,47.461,0.426,23.730,6.000E-002,0.690,0.250,0.000,gas_mels,24.538,47.461
 GasEquipment Internal Gains Nominal, GAS_DRYER1_BACKROW_TOPFLOOR,CLOTHESDRYER,LIVING_UNIT1_BACKROW_TOPFLOOR,111.52,2.0,329.788,2.957,164.894,5.000E-002,0.100,0.850,0.000,gas_dryer,0.000,329.788
 GasEquipment Internal Gains Nominal, GAS_RANGE1_BACKROW_TOPFLOOR,COOKINGRANGE,LIVING_UNIT1_BACKROW_TOPFLOOR,111.52,2.0,450.784,4.042,225.392,6.000E-002,0.690,0.250,0.000,gas_range,10.614,450.784
 GasEquipment Internal Gains Nominal, GAS_MELS1_BACKROW_TOPFLOOR,MISCPLUGLOAD,LIVING_UNIT1_BACKROW_TOPFLOOR,111.52,2.0,47.461,0.426,23.730,6.000E-002,0.690,0.250,0.000,gas_mels,24.538,47.461
 GasEquipment Internal Gains Nominal, GAS_DRYER2_BACKROW_TOPFLOOR,CLOTHESDRYER,LIVING_UNIT2_BACKROW_TOPFLOOR,111.52,2.0,329.788,2.957,164.894,5.000E-002,0.100,0.850,0.000,gas_dryer,0.000,329.788
 GasEquipment Internal Gains Nominal, GAS_RANGE2_BACKROW_TOPFLOOR,COOKINGRANGE,LIVING_UNIT2_BACKROW_TOPFLOOR,111.52,2.0,450.784,4.042,225.392,6.000E-002,0.690,0.250,0.000,gas_range,10.614,450.784
 GasEquipment Internal Gains Nominal, GAS_MELS2_BACKROW_TOPFLOOR,MISCPLUGLOAD,LIVING_UNIT2_BACKROW_TOPFLOOR,111.52,2.0,47.461,0.426,23.730,6.000E-002,0.690,0.250,0.000,gas_mels,24.538,47.461
 GasEquipment Internal Gains Nominal, GAS_DRYER3_BACKROW_TOPFLOOR,CLOTHESDRYER,LIVING_UNIT3_BACKROW_TOPFLOOR,111.52,2.0,329.788,2.957,164.894,5.000E-002,0.100,0.850,0.000,gas_dryer,0.000,329.788
 GasEquipment Internal Gains Nominal, GAS_RANGE3_BACKROW_TOPFLOOR,COOKINGRANGE,LIVING_UNIT3_BACKROW_TOPFLOOR,111.52,2.0,450.784,4.042,225.392,6.000E-002,0.690,0.250,0.000,gas_range,10.614,450.784
 GasEquipment Internal Gains Nominal, GAS_MELS3_BACKROW_TOPFLOOR,MISCPLUGLOAD,LIVING_UNIT3_BACKROW_TOPFLOOR,111.52,2.0,47.461,0.426,23.730,6.000E-002,0.690,0.250,0.000,gas_mels,24.538,47.461
! <Construction CTF>,Construction Name,Index,#Layers,#CTFs,Time Step {hours},ThermalConductance {w/m2-K},OuterThermalAbsorptance,InnerThermalAbsorptance,OuterSolarAbsorptance,InnerSolarAbsorptance,Roughness
! <Material CTF Summary>,Material Name,Thickness {m},Conductivity {w/m-K},Density {kg/m3},Specific Heat {J/kg-K},ThermalResistance {m2-K/w}
! <Material:Air>,Material Name,ThermalResistance {m2-K/w}
! <CTF>,Time,Outside,Cross,Inside,Flux (except final one)
 Construction CTF,EXTERIOR WALL,   1,   5,   7,   1.000,     0.2829    ,   0.900,   0.900,   0.700,   0.700,MediumSmooth
 Material CTF Summary,SYN_STUCCO,  0.0030,         0.086,    400.000,      878.640,  0.3524E-01
 Material CTF Summary,SHEATHING_CONSOL_LAYER,  0.0311,         0.035,     20.100,     1465.415,  0.8807    
 Material CTF Summary,OSB_7/16IN,  0.0111,         0.116,    544.627,     1213.360,  0.9555E-01
 Material CTF Summary,WALL_CONSOL_LAYER,  0.1397,         0.057,    120.801,     1036.258,   2.444    
 Material CTF Summary,DRYWALL_1/2IN,  0.0127,         0.160,    800.923,     1087.840,  0.7933E-01
 CTF,   7,     -0.48524825E-13,     -0.15552876E-13,     -0.27961453E-12,      0.68050686E-15
 CTF,   6,      0.29877193E-08,      0.27636409E-10,      0.13406700E-07,     -0.32204622E-12
 CTF,   5,     -0.12260680E-04,      0.22120929E-06,     -0.79904438E-04,      0.81274456E-08
 CTF,   4,      0.41107533E-02,      0.11969800E-03,      0.31390265E-01,     -0.33286183E-04
 CTF,   3,     -0.12218315    ,      0.53280074E-02,     -0.92858957    ,      0.10965527E-01
 CTF,   2,      0.86679861    ,      0.27098762E-01,       4.9428042    ,     -0.27525931    
 CTF,   1,      -1.9773016    ,      0.17266759E-01,      -8.3316389    ,       1.0860227    
 CTF,   0,       1.2790325    ,      0.63137015E-03,       4.3365587    
 Construction CTF,CEILING-FLOOR-LAYER,   3,   1,   5,   1.000,      1.297    ,   0.900,   0.900,   0.700,   0.700,Rough
 Material CTF Summary,LUMBER_2X4,  0.0890,         0.115,    512.640,      767.580,  0.7709    
 CTF,   5,     -0.73804348E-13,      0.64669460E-13,     -0.73804512E-13,      0.84401040E-18
 CTF,   4,      0.14724727E-06,      0.10734602E-06,      0.14724727E-06,     -0.23954360E-10
 CTF,   3,     -0.14954317E-02,      0.85194176E-03,     -0.14954317E-02,      0.49296359E-05
 CTF,   2,      0.29188816    ,      0.10780912    ,      0.29188816    ,     -0.73156416E-02
 CTF,   1,      -3.0620671    ,      0.59170109    ,      -3.0620671    ,      0.33037973    
 CTF,   0,       3.6498258    ,      0.17778930    ,       3.6498258    
 Construction CTF,EXTERIOR FLOOR,   4,   3,   7,   1.000,     0.1585    ,   0.900,   0.900,   0.700,   0.700,Rough
 Material CTF Summary,FLOOR_CONSOL_LAYER,  0.2858,         0.050,     55.074,      916.931,   5.720    
 Material CTF Summary,PLYWOOD_3/4IN,  0.0191,         0.115,    544.680,      674.540,  0.1650    
 Material CTF Summary,CARPET_N_PAD,  0.0254,         0.060,     32.037,      836.800,  0.4224    
 CTF,   7,     -0.74133138E-16,     -0.93885370E-15,     -0.88598207E-08,      0.57143439E-16
 CTF,   6,      0.32470217E-06,      0.29133869E-08,      0.43359785E-05,     -0.11756193E-06
 CTF,   5,     -0.12477476E-03,      0.34637068E-05,     -0.54866742E-03,      0.50611528E-04
 CTF,   4,      0.90923950E-02,      0.31648605E-03,      0.24107485E-01,     -0.44678387E-02
 CTF,   3,     -0.14720579    ,      0.42871157E-02,     -0.35446832    ,      0.93461115E-01
 CTF,   2,      0.72535372    ,      0.10585072E-01,       1.6988153    ,     -0.60139067    
 CTF,   1,      -1.2899509    ,      0.42924368E-02,      -2.8630788    ,       1.3886896    
 CTF,   0,      0.72244062    ,      0.12103389E-03,       1.5147743    
 Construction CTF,INTERIOR CEILING,   6,   2,   7,   1.000,     0.1080    ,   0.900,   0.900,   0.700,   0.700,Rough
 Material CTF Summary,CEIL_CONSOL_LAYER,  0.5665,         0.062,     41.929,      776.251,   9.179    
 Material CTF Summary,DRYWALL_1/2IN,  0.0127,         0.160,    800.923,     1087.840,  0.7933E-01
 CTF,   7,      0.63668135E-16,      0.10636696E-15,     -0.13377360E-06,     -0.11883814E-15
 CTF,   6,      0.22275600E-06,      0.63673780E-09,      0.26962289E-02,     -0.24551217E-06
 CTF,   5,     -0.75419698E-03,      0.14991766E-05,     -0.89480320E-01,      0.83164556E-03
 CTF,   4,      0.22555643E-01,      0.12805723E-03,      0.99114563    ,     -0.26218135E-01
 CTF,   3,     -0.21139386    ,      0.14189345E-02,      -4.6892352    ,      0.26663265    
 CTF,   2,      0.76290229    ,      0.29362460E-02,       10.306598    ,      -1.0805755    
 CTF,   1,      -1.0965604    ,      0.10534866E-02,      -10.359374    ,       1.7877856    
 CTF,   0,      0.52881775    ,      0.29234758E-04,       3.8432176    
 Construction CTF,ATTIC FLOOR,   7,   2,   7,   1.000,     0.1080    ,   0.900,   0.900,   0.700,   0.700,MediumSmooth
 Material CTF Summary,DRYWALL_1/2IN,  0.0127,         0.160,    800.923,     1087.840,  0.7933E-01
 Material CTF Summary,CEIL_CONSOL_LAYER,  0.5665,         0.062,     41.929,      776.251,   9.179    
 CTF,   7,     -0.13377360E-06,      0.10636696E-15,      0.63668135E-16,     -0.11883814E-15
 CTF,   6,      0.26962289E-02,      0.63673780E-09,      0.22275600E-06,     -0.24551217E-06
 CTF,   5,     -0.89480320E-01,      0.14991766E-05,     -0.75419698E-03,      0.83164556E-03
 CTF,   4,      0.99114563    ,      0.12805723E-03,      0.22555643E-01,     -0.26218135E-01
 CTF,   3,      -4.6892352    ,      0.14189345E-02,     -0.21139386    ,      0.26663265    
 CTF,   2,       10.306598    ,      0.29362460E-02,      0.76290229    ,      -1.0805755    
 CTF,   1,      -10.359374    ,      0.10534866E-02,      -1.0965604    ,       1.7877856    
 CTF,   0,       3.8432176    ,      0.29234758E-04,      0.52881775    
 Construction CTF,INTERIORWALL,   9,   3,   3,   1.000,      3.388    ,   0.900,   0.900,   0.700,   0.700,MediumSmooth
 Material CTF Summary,DRYWALL_1/2IN,  0.0127,         0.160,    800.923,     1087.840,  0.7933E-01
 Material CTF Summary,OSB_5/8IN,  0.0159,         0.116,    544.627,     1213.360,  0.1365    
 Material CTF Summary,DRYWALL_1/2IN,  0.0127,         0.160,    800.923,     1087.840,  0.7933E-01
 CTF,   3,     -0.74876206E-08,      0.17902742E-08,     -0.74876206E-08,      0.19537352E-21
 CTF,   2,      0.15597607E-01,      0.55423627E-02,      0.15597607E-01,     -0.10917027E-07
 CTF,   1,      -3.1929654    ,       1.3042696    ,      -3.1929654    ,      0.11827749E-01
 CTF,   0,       6.5252683    ,       2.0380885    ,       6.5252683    
 Construction CTF,EXTERIOR ROOF,  11,   2,   2,   1.000,      5.358    ,   0.900,   0.900,   0.750,   0.700,MediumRough
 Material CTF Summary,ASPHALT_SHINGLE,  0.0063,         0.082,   1121.292,     1255.200,  0.7745E-01
 Material CTF Summary,OSB_1/2IN,  0.0127,         0.116,    544.627,     1213.360,  0.1092    
 CTF,   2,      0.94467954E-05,      0.31317736E-05,      0.79225250E-05,     -0.26749844E-22
 CTF,   1,      -1.8383944    ,      0.81257669    ,      -1.3462729    ,      0.15535189E-04
 CTF,   0,       7.1959782    ,       4.5450135    ,       6.7038583    
 Construction CTF,EXTERIOR DOOR,  14,   1,   3,   1.000,      1.704    ,   0.900,   0.900,   0.700,   0.700,Smooth
 Material CTF Summary,DOOR_CONST,  0.0423,         0.072,    512.640,      767.580,  0.5870    
 CTF,   3,     -0.10160624E-06,      0.73584215E-07,     -0.10160624E-06,      0.20723692E-14
 CTF,   2,      0.14353166E-01,      0.84320589E-02,      0.14353166E-01,     -0.11383510E-05
 CTF,   1,      -1.4926951    ,      0.74131348    ,      -1.4926951    ,      0.38067385E-01
 CTF,   0,       3.1170731    ,      0.88898549    ,       3.1170731    
 Construction CTF,GABLE_END,  16,   5,   4,   1.000,      2.431    ,   0.900,   0.900,   0.700,   0.700,MediumSmooth
 Material CTF Summary,CEMENT_STUCCO,  0.0191,         0.721,   1865.580,      878.640,  0.2642E-01
 Material CTF Summary,BLDG_PAPER_FELT,  0.0000,         0.000,      0.000,        0.000,  0.1057E-01
 Material CTF Summary,OSB_5/8IN,  0.0159,         0.116,    544.627,     1213.360,  0.1365    
 Material:Air,AIR_4_IN_VERT,  0.1585    
[...]
 Component Sizing Information, Coil:Cooling:DX:SingleSpeed, DX COOLING COIL_UNIT3_BACKROW_TOPFLOOR, Design Size Gross Rated Sensible Heat Ratio, 0.80066
 DX Cooling Coil Standard Rating Information, Coil:Cooling:DX:SingleSpeed, DX COOLING COIL_UNIT3_BACKROW_TOPFLOOR, 2715.1, 3.19, 10.89, 11.54, 11.09, 11.07
 Component Sizing Information, AirLoopHVAC:UnitaryHeatCool, ACANDF_UNIT3_BACKROW_TOPFLOOR, Supply Air Flow Rate [m3/s], 0.17208
 Component Sizing Information, AirLoopHVAC:UnitaryHeatCool, ACANDF_UNIT3_BACKROW_TOPFLOOR, Supply Air Flow Rate During Heating Operation [m3/s], 0.17208
 Component Sizing Information, AirLoopHVAC:UnitaryHeatCool, ACANDF_UNIT3_BACKROW_TOPFLOOR, Supply Air Flow Rate During Cooling Operation [m3/s], 0.17208
 Component Sizing Information, AirLoopHVAC:UnitaryHeatCool, ACANDF_UNIT3_BACKROW_TOPFLOOR, Nominal Heating Capacity [W], 4686.19767
 Component Sizing Information, AirLoopHVAC:UnitaryHeatCool, ACANDF_UNIT3_BACKROW_TOPFLOOR, Nominal Cooling Capacity [W], 2848.52784
 Component Sizing Information, AirLoopHVAC:UnitaryHeatCool, ACANDF_UNIT3_BACKROW_TOPFLOOR, Fraction of Supply Air Flow That Goes Through the Controlling Zone, 1.00000
 Component Sizing Information, Fan:OnOff, SUPPLY FAN_UNIT3_BACKROW_TOPFLOOR, Design Size Maximum Flow Rate [m3/s], 0.17208
 Component Sizing Information, Coil:Heating:Fuel, MAIN FUEL HEATING COIL_UNIT3_BACKROW_TOPFLOOR, Design Size Nominal Capacity [W], 4686.19767
 Component Sizing Information, PlantLoop, DHW LOOP_UNIT1_FRONTROW_BOTTOMFLOOR, Maximum Loop Flow Rate [m3/s], 4.93055E-004
 Component Sizing Information, PlantLoop, DHW LOOP_UNIT1_FRONTROW_BOTTOMFLOOR, Plant Loop Volume [m3], 5.91666E-002
 Component Sizing Information, Pump:VariableSpeed, MAINS PRESSURE_UNIT1_FRONTROW_BOTTOMFLOOR, Design Flow Rate [m3/s], 4.93055E-004
 Component Sizing Information, WaterHeater:Mixed, WATER HEATER_UNIT1_FRONTROW_BOTTOMFLOOR, Maximum Heater Capacity [W], 10551.60000
 Component Sizing Information, WaterHeater:Mixed, WATER HEATER_UNIT1_FRONTROW_BOTTOMFLOOR, Use Side Design Flow Rate [m3/s], 4.93055E-004
Water Heater Information,WaterHeater:Mixed,WATER HEATER_UNIT1_FRONTROW_BOTTOMFLOOR,3.7854E-003,10551.6,174.036,0.9191
 Component Sizing Information, PlantLoop, DHW LOOP_UNIT2_FRONTROW_BOTTOMFLOOR, Maximum Loop Flow Rate [m3/s], 4.93055E-004
 Component Sizing Information, PlantLoop, DHW LOOP_UNIT2_FRONTROW_BOTTOMFLOOR, Plant Loop Volume [m3], 5.91666E-002
 Component Sizing Information, Pump:VariableSpeed, MAINS PRESSURE_UNIT2_FRONTROW_BOTTOMFLOOR, Design Flow Rate [m3/s], 4.93055E-004
 Component Sizing Information, WaterHeater:Mixed, WATER HEATER_UNIT2_FRONTROW_BOTTOMFLOOR, Maximum Heater Capacity [W], 10551.60000
 Component Sizing Information, WaterHeater:Mixed, WATER HEATER_UNIT2_FRONTROW_BOTTOMFLOOR, Use Side Design Flow Rate [m3/s], 4.93055E-004
Water Heater Information,WaterHeater:Mixed,WATER HEATER_UNIT2_FRONTROW_BOTTOMFLOOR,3.7854E-003,10551.6,174.036,0.9191
 Component Sizing Information, PlantLoop, DHW LOOP_UNIT3_FRONTROW_BOTTOMFLOOR, Maximum Loop Flow Rate [m3/s], 4.93055E-004
 Component Sizing Information, PlantLoop, DHW LOOP_UNIT3_FRONTROW_BOTTOMFLOOR, Plant Loop Volume [m3], 5.91666E-002
 Component Sizing Information, Pump:VariableSpeed, MAINS PRESSURE_UNIT3_FRONTROW_BOTTOMFLOOR, Design Flow Rate [m3/s], 4.93055E-004
 Component Sizing Information, WaterHeater:Mixed, WATER HEATER_UNIT3_FRONTROW_BOTTOMFLOOR, Maximum Heater Capacity [W], 10551.60000
 Component Sizing Information, WaterHeater:Mixed, WATER HEATER_UNIT3_FRONTROW_BOTTOMFLOOR, Use Side Design Flow Rate [m3/s], 4.93055E-004
Water Heater Information,WaterHeater:Mixed,WATER HEATER_UNIT3_FRONTROW_BOTTOMFLOOR,3.7854E-003,10551.6,174.036,0.9191
 Component Sizing Information, PlantLoop, DHW LOOP_UNIT1_BACKROW_BOTTOMFLOOR, Maximum Loop Flow Rate [m3/s], 4.93055E-004
 Component Sizing Information, PlantLoop, DHW LOOP_UNIT1_BACKROW_BOTTOMFLOOR, Plant Loop Volume [m3], 5.91666E-002
 Component Sizing Information, Pump:VariableSpeed, MAINS PRESSURE_UNIT1_BACKROW_BOTTOMFLOOR, Design Flow Rate [m3/s], 4.93055E-004
 Component Sizing Information, WaterHeater:Mixed, WATER HEATER_UNIT1_BACKROW_BOTTOMFLOOR, Maximum Heater Capacity [W], 10551.60000
 Component Sizing Information, WaterHeater:Mixed, WATER HEATER_UNIT1_BACKROW_BOTTOMFLOOR, Use Side Design Flow Rate [m3/s], 4.93055E-004
Water Heater Information,WaterHeater:Mixed,WATER HEATER_UNIT1_BACKROW_BOTTOMFLOOR,3.7854E-003,10551.6,174.036,0.9191
 Component Sizing Information, PlantLoop, DHW LOOP_UNIT2_BACKROW_BOTTOMFLOOR, Maximum Loop Flow Rate [m3/s], 4.93055E-004
 Component Sizing Information, PlantLoop, DHW LOOP_UNIT2_BACKROW_BOTTOMFLOOR, Plant Loop Volume [m3], 5.91666E-002
 Component Sizing Information, Pump:VariableSpeed, MAINS PRESSURE_UNIT2_BACKROW_BOTTOMFLOOR, Design Flow Rate [m3/s], 4.93055E-004
 Component Sizing Information, WaterHeater:Mixed, WATER HEATER_UNIT2_BACKROW_BOTTOMFLOOR, Maximum Heater Capacity [W], 10551.60000
 Component Sizing Information, WaterHeater:Mixed, WATER HEATER_UNIT2_BACKROW_BOTTOMFLOOR, Use Side Design Flow Rate [m3/s], 4.93055E-004
Water Heater Information,WaterHeater:Mixed,WATER HEATER_UNIT2_BACKROW_BOTTOMFLOOR,3.7854E-003,10551.6,174.036,0.9191
 Component Sizing Information, PlantLoop, DHW LOOP_UNIT3_BACKROW_BOTTOMFLOOR, Maximum Loop Flow Rate [m3/s], 4.93055E-004
 Component Sizing Information, PlantLoop, DHW LOOP_UNIT3_BACKROW_BOTTOMFLOOR, Plant Loop Volume [m3], 5.91666E-002
 Component Sizing Information, Pump:VariableSpeed, MAINS PRESSURE_UNIT3_BACKROW_BOTTOMFLOOR, Design Flow Rate [m3/s], 4.93055E-004
 Component Sizing Information, WaterHeater:Mixed, WATER HEATER_UNIT3_BACKROW_BOTTOMFLOOR, Maximum Heater Capacity [W], 10551.60000
 Component Sizing Information, WaterHeater:Mixed, WATER HEATER_UNIT3_BACKROW_BOTTOMFLOOR, Use Side Design Flow Rate [m3/s], 4.93055E-004
Water Heater Information,WaterHeater:Mixed,WATER HEATER_UNIT3_BACKROW_BOTTOMFLOOR,3.7854E-003,10551.6,174.036,0.9191
 Component Sizing Information, PlantLoop, DHW LOOP_UNIT1_FRONTROW_MIDDLEFLOOR, Maximum Loop Flow Rate [m3/s], 4.93055E-004
 Component Sizing Information, PlantLoop, DHW LOOP_UNIT1_FRONTROW_MIDDLEFLOOR, Plant Loop Volume [m3], 5.91666E-002
 Component Sizing Information, Pump:VariableSpeed, MAINS PRESSURE_UNIT1_FRONTROW_MIDDLEFLOOR, Design Flow Rate [m3/s], 4.93055E-004
 Component Sizing Information, WaterHeater:Mixed, WATER HEATER_UNIT1_FRONTROW_MIDDLEFLOOR, Maximum Heater Capacity [W], 10551.60000
 Component Sizing Information, WaterHeater:Mixed, WATER HEATER_UNIT1_FRONTROW_MIDDLEFLOOR, Use Side Design Flow Rate [m3/s], 4.93055E-004
Water Heater Information,WaterHeater:Mixed,WATER HEATER_UNIT1_FRONTROW_MIDDLEFLOOR,3.7854E-003,10551.6,174.036,0.9191
 Component Sizing Information, PlantLoop, DHW LOOP_UNIT2_FRONTROW_MIDDLEFLOOR, Maximum Loop Flow Rate [m3/s], 4.93055E-004
 Component Sizing Information, PlantLoop, DHW LOOP_UNIT2_FRONTROW_MIDDLEFLOOR, Plant Loop Volume [m3], 5.91666E-002
 Component Sizing Information, Pump:VariableSpeed, MAINS PRESSURE_UNIT2_FRONTROW_MIDDLEFLOOR, Design Flow Rate [m3/s], 4.93055E-004
 Component Sizing Information, WaterHeater:Mixed, WATER HEATER_UNIT2_FRONTROW_MIDDLEFLOOR, Maximum Heater Capacity [W], 10551.60000
 Component Sizing Information, WaterHeater:Mixed, WATER HEATER_UNIT2_FRONTROW_MIDDLEFLOOR, Use Side Design Flow Rate [m3/s], 4.93055E-004
Water Heater Information,WaterHeater:Mixed,WATER HEATER_UNIT2_FRONTROW_MIDDLEFLOOR,3.7854E-003,10551.6,174.036,0.9191
 Component Sizing Information, PlantLoop, DHW LOOP_UNIT3_FRONTROW_MIDDLEFLOOR, Maximum Loop Flow Rate [m3/s], 4.93055E-004
 Component Sizing Information, PlantLoop, DHW LOOP_UNIT3_FRONTROW_MIDDLEFLOOR, Plant Loop Volume [m3], 5.91666E-002
 Component Sizing Information, Pump:VariableSpeed, MAINS PRESSURE_UNIT3_FRONTROW_MIDDLEFLOOR, Design Flow Rate [m3/s], 4.93055E-004
 Component Sizing Information, WaterHeater:Mixed, WATER HEATER_UNIT3_FRONTROW_MIDDLEFLOOR, Maximum Heater Capacity [W], 10551.60000
 Component Sizing Information, WaterHeater:Mixed, WATER HEATER_UNIT3_FRONTROW_MIDDLEFLOOR, Use Side Design Flow Rate [m3/s], 4.93055E-004
Water Heater Information,WaterHeater:Mixed,WATER HEATER_UNIT3_FRONTROW_MIDDLEFLOOR,3.7854E-003,10551.6,174.036,0.9191
 Component Sizing Information, PlantLoop, DHW LOOP_UNIT1_BACKROW_MIDDLEFLOOR, Maximum Loop Flow Rate [m3/s], 4.93055E-004
 Component Sizing Information, PlantLoop, DHW LOOP_UNIT1_BACKROW_MIDDLEFLOOR, Plant Loop Volume [m3], 5.91666E-002
 Component Sizing Information, Pump:VariableSpeed, MAINS PRESSURE_UNIT1_BACKROW_MIDDLEFLOOR, Design Flow Rate [m3/s], 4.93055E-004
 Component Sizing Information, WaterHeater:Mixed, WATER HEATER_UNIT1_BACKROW_MIDDLEFLOOR, Maximum Heater Capacity [W], 10551.60000
 Component Sizing Information, WaterHeater:Mixed, WATER HEATER_UNIT1_BACKROW_MIDDLEFLOOR, Use Side Design Flow Rate [m3/s], 4.93055E-004
Water Heater Information,WaterHeater:Mixed,WATER HEATER_UNIT1_BACKROW_MIDDLEFLOOR,3.7854E-003,10551.6,174.036,0.9191
 Component Sizing Information, PlantLoop, DHW LOOP_UNIT2_BACKROW_MIDDLEFLOOR, Maximum Loop Flow Rate [m3/s], 4.93055E-004
 Component Sizing Information, PlantLoop, DHW LOOP_UNIT2_BACKROW_MIDDLEFLOOR, Plant Loop Volume [m3], 5.91666E-002
 Component Sizing Information, Pump:VariableSpeed, MAINS PRESSURE_UNIT2_BACKROW_MIDDLEFLOOR, Design Flow Rate [m3/s], 4.93055E-004
 Component Sizing Information, WaterHeater:Mixed, WATER HEATER_UNIT2_BACKROW_MIDDLEFLOOR, Maximum Heater Capacity [W], 10551.60000
 Component Sizing Information, WaterHeater:Mixed, WATER HEATER_UNIT2_BACKROW_MIDDLEFLOOR, Use Side Design Flow Rate [m3/s], 4.93055E-004
Water Heater Information,WaterHeater:Mixed,WATER HEATER_UNIT2_BACKROW_MIDDLEFLOOR,3.7854E-003,10551.6,174.036,0.9191
 Component Sizing Information, PlantLoop, DHW LOOP_UNIT3_BACKROW_MIDDLEFLOOR, Maximum Loop Flow Rate [m3/s], 4.93055E-004
 Component Sizing Information, PlantLoop, DHW LOOP_UNIT3_BACKROW_MIDDLEFLOOR, Plant Loop Volume [m3], 5.91666E-002
 Component Sizing Information, Pump:VariableSpeed, MAINS PRESSURE_UNIT3_BACKROW_MIDDLEFLOOR, Design Flow Rate [m3/s], 4.93055E-004
 Component Sizing Information, WaterHeater:Mixed, WATER HEATER_UNIT3_BACKROW_MIDDLEFLOOR, Maximum Heater Capacity [W], 10551.60000
 Component Sizing Information, WaterHeater:Mixed, WATER HEATER_UNIT3_BACKROW_MIDDLEFLOOR, Use Side Design Flow Rate [m3/s], 4.93055E-004
Water Heater Information,WaterHeater:Mixed,WATER HEATER_UNIT3_BACKROW_MIDDLEFLOOR,3.7854E-003,10551.6,174.036,0.9191
 Component Sizing Information, PlantLoop, DHW LOOP_UNIT1_FRONTROW_TOPFLOOR, Maximum Loop Flow Rate [m3/s], 4.93055E-004
 Component Sizing Information, PlantLoop, DHW LOOP_UNIT1_FRONTROW_TOPFLOOR, Plant Loop Volume [m3], 5.91666E-002
 Component Sizing Information, Pump:VariableSpeed, MAINS PRESSURE_UNIT1_FRONTROW_TOPFLOOR, Design Flow Rate [m3/s], 4.93055E-004
 Component Sizing Information, WaterHeater:Mixed, WATER HEATER_UNIT1_FRONTROW_TOPFLOOR, Maximum Heater Capacity [W], 10551.60000
 Component Sizing Information, WaterHeater:Mixed, WATER HEATER_UNIT1_FRONTROW_TOPFLOOR, Use Side Design Flow Rate [m3/s], 4.93055E-004
Water Heater Information,WaterHeater:Mixed,WATER HEATER_UNIT1_FRONTROW_TOPFLOOR,3.7854E-003,10551.6,174.036,0.9191
 Component Sizing Information, PlantLoop, DHW LOOP_UNIT2_FRONTROW_TOPFLOOR, Maximum Loop Flow Rate [m3/s], 4.93055E-004
 Component Sizing Information, PlantLoop, DHW LOOP_UNIT2_FRONTROW_TOPFLOOR, Plant Loop Volume [m3], 5.91666E-002
 Component Sizing Information, Pump:VariableSpeed, MAINS PRESSURE_UNIT2_FRONTROW_TOPFLOOR, Design Flow Rate [m3/s], 4.93055E-004
 Component Sizing Information, WaterHeater:Mixed, WATER HEATER_UNIT2_FRONTROW_TOPFLOOR, Maximum Heater Capacity [W], 10551.60000
 Component Sizing Information, WaterHeater:Mixed, WATER HEATER_UNIT2_FRONTROW_TOPFLOOR, Use Side Design Flow Rate [m3/s], 4.93055E-004
Water Heater Information,WaterHeater:Mixed,WATER HEATER_UNIT2_FRONTROW_TOPFLOOR,3.7854E-003,10551.6,174.036,0.9191
 Component Sizing Information, PlantLoop, DHW LOOP_UNIT3_FRONTROW_TOPFLOOR, Maximum Loop Flow Rate [m3/s], 4.93055E-004
 Component Sizing Information, PlantLoop, DHW LOOP_UNIT3_FRONTROW_TOPFLOOR, Plant Loop Volume [m3], 5.91666E-002
 Component Sizing Information, Pump:VariableSpeed, MAINS PRESSURE_UNIT3_FRONTROW_TOPFLOOR, Design Flow Rate [m3/s], 4.93055E-004
 Component Sizing Information, WaterHeater:Mixed, WATER HEATER_UNIT3_FRONTROW_TOPFLOOR, Maximum Heater Capacity [W], 10551.60000
 Component Sizing Information, WaterHeater:Mixed, WATER HEATER_UNIT3_FRONTROW_TOPFLOOR, Use Side Design Flow Rate [m3/s], 4.93055E-004
Water Heater Information,WaterHeater:Mixed,WATER HEATER_UNIT3_FRONTROW_TOPFLOOR,3.7854E-003,10551.6,174.036,0.9191
 Component Sizing Information, PlantLoop, DHW LOOP_UNIT1_BACKROW_TOPFLOOR, Maximum Loop Flow Rate [m3/s], 4.93055E-004
 Component Sizing Information, PlantLoop, DHW LOOP_UNIT1_BACKROW_TOPFLOOR, Plant Loop Volume [m3], 5.91666E-002
 Component Sizing Information, Pump:VariableSpeed, MAINS PRESSURE_UNIT1_BACKROW_TOPFLOOR, Design Flow Rate [m3/s], 4.93055E-004
 Component Sizing Information, WaterHeater:Mixed, WATER HEATER_UNIT1_BACKROW_TOPFLOOR, Maximum Heater Capacity [W], 10551.60000
 Component Sizing Information, WaterHeater:Mixed, WATER HEATER_UNIT1_BACKROW_TOPFLOOR, Use Side Design Flow Rate [m3/s], 4.93055E-004
Water Heater Information,WaterHeater:Mixed,WATER HEATER_UNIT1_BACKROW_TOPFLOOR,3.7854E-003,10551.6,174.036,0.9191
 Component Sizing Information, PlantLoop, DHW LOOP_UNIT2_BACKROW_TOPFLOOR, Maximum Loop Flow Rate [m3/s], 4.93055E-004
 Component Sizing Information, PlantLoop, DHW LOOP_UNIT2_BACKROW_TOPFLOOR, Plant Loop Volume [m3], 5.91666E-002
 Component Sizing Information, Pump:VariableSpeed, MAINS PRESSURE_UNIT2_BACKROW_TOPFLOOR, Design Flow Rate [m3/s], 4.93055E-004
 Component Sizing Information, WaterHeater:Mixed, WATER HEATER_UNIT2_BACKROW_TOPFLOOR, Maximum Heater Capacity [W], 10551.60000
 Component Sizing Information, WaterHeater:Mixed, WATER HEATER_UNIT2_BACKROW_TOPFLOOR, Use Side Design Flow Rate [m3/s], 4.93055E-004
Water Heater Information,WaterHeater:Mixed,WATER HEATER_UNIT2_BACKROW_TOPFLOOR,3.7854E-003,10551.6,174.036,0.9191
 Component Sizing Information, PlantLoop, DHW LOOP_UNIT3_BACKROW_TOPFLOOR, Maximum Loop Flow Rate [m3/s], 4.93055E-004
 Component Sizing Information, PlantLoop, DHW LOOP_UNIT3_BACKROW_TOPFLOOR, Plant Loop Volume [m3], 5.91666E-002
 Component Sizing Information, Pump:VariableSpeed, MAINS PRESSURE_UNIT3_BACKROW_TOPFLOOR, Design Flow Rate [m3/s], 4.93055E-004
 Component Sizing Information, WaterHeater:Mixed, WATER HEATER_UNIT3_BACKROW_TOPFLOOR, Maximum Heater Capacity [W], 10551.60000
 Component Sizing Information, WaterHeater:Mixed, WATER HEATER_UNIT3_BACKROW_TOPFLOOR, Use Side Design Flow Rate [m3/s], 4.93055E-004
Water Heater Information,WaterHeater:Mixed,WATER HEATER_UNIT3_BACKROW_TOPFLOOR,3.7854E-003,10551.6,174.036,0.9191
! <Environment>,Environment Name,Environment Type, Start Date, End Date, Start DayOfWeek, Duration {#days}, Source:Start DayOfWeek,  Use Daylight Saving, Use Holidays, Apply Weekend Holiday Rule,  Use Rain Values, Use Snow Values, Sky Temperature Model
! <Environment:Special Days>, Special Day Name, Special Day Type, Source, Start Date, Duration {#days}
! <Environment:Daylight Saving>, Daylight Saving Indicator, Source, Start Date, End Date
! <Environment:WarmupDays>, NumberofWarmupDays
Environment,ANNUAL,WeatherFileRunPeriod,01/12/2014,01/12/2014,Sunday,1,Use RunPeriod Specified Day,Yes,Yes,No,Yes,Yes,Clark and Allen
Environment:Daylight Saving,No,
Environment:WarmupDays,  9
! <Tabular Report>,Style,Unit Conversion
Tabular Report,Commaandhtml,commaandhtml
! <Warmup Convergence Information>,Zone Name,Environment Type/Name,Average Warmup Temperature Difference {deltaC},Std Dev Warmup Temperature Difference {deltaC},Max Temperature Pass/Fail Convergence,Min Temperature Pass/Fail Convergence,Average Warmup Load Difference {W},Std Dev Warmup Load Difference {W},Heating Load Pass/Fail Convergence,Cooling Load Pass/Fail Convergence
 Warmup Convergence Information,UNHEATEDBSMT,RunPeriod: ANNUAL,1.4442995412E-002,9.7071272700E-003,Pass,Pass,0.0000000000,0.0000000000,Pass,Pass
 Warmup Convergence Information,BREEZEWAY,RunPeriod: ANNUAL,9.0709849467E-003,7.7228159464E-003,Pass,Pass,0.0000000000,0.0000000000,Pass,Pass
 Warmup Convergence Information,LIVING_UNIT1_FRONTROW_BOTTOMFLOOR,RunPeriod: ANNUAL,1.0938457196E-005,2.8179075771E-005,Pass,Pass,7.8646500495E-002,7.6255458197E-002,Pass,Pass
 Warmup Convergence Information,LIVING_UNIT2_FRONTROW_BOTTOMFLOOR,RunPeriod: ANNUAL,8.5795120611E-006,2.1594908387E-005,Pass,Pass,0.1189530466,0.1252764276,Pass,Pass
 Warmup Convergence Information,LIVING_UNIT3_FRONTROW_BOTTOMFLOOR,RunPeriod: ANNUAL,1.0679740945E-005,2.6533923867E-005,Pass,Pass,8.5745916890E-002,7.9428139602E-002,Pass,Pass
 Warmup Convergence Information,LIVING_UNIT1_BACKROW_BOTTOMFLOOR,RunPeriod: ANNUAL,1.1856003946E-005,3.0690350891E-005,Pass,Pass,7.7663610703E-002,7.6392507447E-002,Pass,Pass
 Warmup Convergence Information,LIVING_UNIT2_BACKROW_BOTTOMFLOOR,RunPeriod: ANNUAL,9.4108910876E-006,2.4209125004E-005,Pass,Pass,0.1212257474,0.1219254695,Pass,Pass
 Warmup Convergence Information,LIVING_UNIT3_BACKROW_BOTTOMFLOOR,RunPeriod: ANNUAL,1.1630341542E-005,2.9166127173E-005,Pass,Pass,7.8814342165E-002,7.6354808213E-002,Pass,Pass
 Warmup Convergence Information,LIVING_UNIT1_FRONTROW_MIDDLEFLOOR,RunPeriod: ANNUAL,6.8340105039E-006,1.7723615668E-005,Pass,Pass,7.6158994000E-002,7.5151746351E-002,Pass,Pass
 Warmup Convergence Information,LIVING_UNIT2_FRONTROW_MIDDLEFLOOR,RunPeriod: ANNUAL,3.5399820253E-006,1.0293705458E-005,Pass,Pass,0.1915132076,0.3016620691,Pass,Pass
 Warmup Convergence Information,LIVING_UNIT3_FRONTROW_MIDDLEFLOOR,RunPeriod: ANNUAL,6.3035328726E-006,1.6166107763E-005,Pass,Pass,8.5965340392E-002,8.0586707059E-002,Pass,Pass
 Warmup Convergence Information,LIVING_UNIT1_BACKROW_MIDDLEFLOOR,RunPeriod: ANNUAL,7.4170985404E-006,1.9600793975E-005,Pass,Pass,7.6250924645E-002,7.3938459356E-002,Pass,Pass
 Warmup Convergence Information,LIVING_UNIT2_BACKROW_MIDDLEFLOOR,RunPeriod: ANNUAL,4.1532259631E-006,1.2238312279E-005,Pass,Pass,0.1880935458,0.2791826581,Pass,Pass
 Warmup Convergence Information,LIVING_UNIT3_BACKROW_MIDDLEFLOOR,RunPeriod: ANNUAL,6.9113314511E-006,1.8140130877E-005,Pass,Pass,7.7687099506E-002,7.4361334407E-002,Pass,Pass
 Warmup Convergence Information,ATTIC,RunPeriod: ANNUAL,0.6229313496,1.0666950096,Pass,Pass,0.0000000000,0.0000000000,Pass,Pass
 Warmup Convergence Information,LIVING_UNIT3_BACKROW_TOPFLOOR,RunPeriod: ANNUAL,1.3345823684E-005,3.3905071705E-005,Pass,Pass,6.3282576218E-002,6.1070214299E-002,Pass,Pass
 Warmup Convergence Information,LIVING_UNIT3_FRONTROW_TOPFLOOR,RunPeriod: ANNUAL,1.2469168170E-005,3.1597250101E-005,Pass,Pass,6.7647713193E-002,6.2339295390E-002,Pass,Pass
 Warmup Convergence Information,LIVING_UNIT1_FRONTROW_TOPFLOOR,RunPeriod: ANNUAL,1.2297763701E-005,3.2058333657E-005,Pass,Pass,6.3162795915E-002,6.1210262055E-002,Pass,Pass
 Warmup Convergence Information,LIVING_UNIT2_BACKROW_TOPFLOOR,RunPeriod: ANNUAL,1.0426949722E-005,2.7517037890E-005,Pass,Pass,8.8004573710E-002,8.3817204972E-002,Pass,Pass
 Warmup Convergence Information,LIVING_UNIT2_FRONTROW_TOPFLOOR,RunPeriod: ANNUAL,9.8077152958E-006,2.5607949873E-005,Pass,Pass,8.5106169021E-002,8.6287152199E-002,Pass,Pass
 Warmup Convergence Information,LIVING_UNIT1_BACKROW_TOPFLOOR,RunPeriod: ANNUAL,1.3012261501E-005,3.3990702320E-005,Pass,Pass,6.3327925122E-002,6.1105938055E-002,Pass,Pass
! <Program Control Information:Threads/Parallel Sims>, Threading Supported,Maximum Number of Threads, Env Set Threads (OMP_NUM_THREADS), EP Env Set Threads (EP_OMP_NUM_THREADS), IDF Set Threads, Number of Threads Used (Interior Radiant Exchange), Number Nominal Surfaces, Number Parallel Sims
Program Control:Threads/Parallel Sims, No,1, N/A, N/A, N/A, N/A, N/A, N/A
End of Data
