Program Version,EnergyPlus, Version 9.6.0-f420c06a69, YMD=2024.05.14 12:32
! This file shows details about the branches, nodes, and other
! elements of the flow connections.
! This file is intended for use in "debugging" potential problems
! that may also be detected by the program, but may be more easily
! identified by "eye".
! This file is also intended to support software which draws a
! schematic diagram of the HVAC system.
! ===============================================================
! #Nodes,<Number of Unique Nodes>
 #Nodes,792
! <Node>,<NodeNumber>,<Node Name>,<Node Fluid Type>,<# Times Node Referenced After Definition>
 Node,1,ZONE INLET NODE_UNIT1_FRONTROW_BOTTOMFLOOR,Air,3
 Node,2,HPWH ZONE INLET NODE_UNIT1_FRONTROW_BOTTOMFLOOR,Air,3
 Node,3,OA INLET NODE_UNIT1_FRONTROW_BOTTOMFLOOR,Air,3
 Node,4,ZONE EXHAUST NODE_UNIT1_FRONTROW_BOTTOMFLOOR,Air,3
 Node,5,ZONE EXHAUST NODE1_UNIT1_FRONTROW_BOTTOMFLOOR,Air,3
 Node,6,ZONE INLET NODE_UNIT2_FRONTROW_BOTTOMFLOOR,Air,3
 Node,7,HPWH ZONE INLET NODE_UNIT2_FRONTROW_BOTTOMFLOOR,Air,3
 Node,8,OA INLET NODE_UNIT2_FRONTROW_BOTTOMFLOOR,Air,3
 Node,9,ZONE EXHAUST NODE_UNIT2_FRONTROW_BOTTOMFLOOR,Air,3
 Node,10,ZONE EXHAUST NODE1_UNIT2_FRONTROW_BOTTOMFLOOR,Air,3
 Node,11,ZONE INLET NODE_UNIT3_FRONTROW_BOTTOMFLOOR,Air,3
 Node,12,HPWH ZONE INLET NODE_UNIT3_FRONTROW_BOTTOMFLOOR,Air,3
 Node,13,OA INLET NODE_UNIT3_FRONTROW_BOTTOMFLOOR,Air,3
 Node,14,ZONE EXHAUST NODE_UNIT3_FRONTROW_BOTTOMFLOOR,Air,3
 Node,15,ZONE EXHAUST NODE1_UNIT3_FRONTROW_BOTTOMFLOOR,Air,3
 Node,16,ZONE INLET NODE_UNIT1_BACKROW_BOTTOMFLOOR,Air,3
 Node,17,HPWH ZONE INLET NODE_UNIT1_BACKROW_BOTTOMFLOOR,Air,3
 Node,18,OA INLET NODE_UNIT1_BACKROW_BOTTOMFLOOR,Air,3
 Node,19,ZONE EXHAUST NODE_UNIT1_BACKROW_BOTTOMFLOOR,Air,3
 Node,20,ZONE EXHAUST NODE1_UNIT1_BACKROW_BOTTOMFLOOR,Air,3
 Node,21,ZONE INLET NODE_UNIT2_BACKROW_BOTTOMFLOOR,Air,3
 Node,22,HPWH ZONE INLET NODE_UNIT2_BACKROW_BOTTOMFLOOR,Air,3
 Node,23,OA INLET NODE_UNIT2_BACKROW_BOTTOMFLOOR,Air,3
 Node,24,ZONE EXHAUST NODE_UNIT2_BACKROW_BOTTOMFLOOR,Air,3
 Node,25,ZONE EXHAUST NODE1_UNIT2_BACKROW_BOTTOMFLOOR,Air,3
 Node,26,ZONE INLET NODE_UNIT3_BACKROW_BOTTOMFLOOR,Air,3
 Node,27,HPWH ZONE INLET NODE_UNIT3_BACKROW_BOTTOMFLOOR,Air,3
 Node,28,OA INLET NODE_UNIT3_BACKROW_BOTTOMFLOOR,Air,3
 Node,29,ZONE EXHAUST NODE_UNIT3_BACKROW_BOTTOMFLOOR,Air,3
 Node,30,ZONE EXHAUST NODE1_UNIT3_BACKROW_BOTTOMFLOOR,Air,3
 Node,31,ZONE INLET NODE_UNIT1_FRONTROW_MIDDLEFLOOR,Air,3
 Node,32,HPWH ZONE INLET NODE_UNIT1_FRONTROW_MIDDLEFLOOR,Air,3
 Node,33,OA INLET NODE_UNIT1_FRONTROW_MIDDLEFLOOR,Air,3
 Node,34,ZONE EXHAUST NODE_UNIT1_FRONTROW_MIDDLEFLOOR,Air,3
 Node,35,ZONE EXHAUST NODE1_UNIT1_FRONTROW_MIDDLEFLOOR,Air,3
 Node,36,ZONE INLET NODE_UNIT2_FRONTROW_MIDDLEFLOOR,Air,3
 Node,37,HPWH ZONE INLET NODE_UNIT2_FRONTROW_MIDDLEFLOOR,Air,3
 Node,38,OA INLET NODE_UNIT2_FRONTROW_MIDDLEFLOOR,Air,3
 Node,39,ZONE EXHAUST NODE_UNIT2_FRONTROW_MIDDLEFLOOR,Air,3
 Node,40,ZONE EXHAUST NODE1_UNIT2_FRONTROW_MIDDLEFLOOR,Air,3
 Node,41,ZONE INLET NODE_UNIT3_FRONTROW_MIDDLEFLOOR,Air,3
 Node,42,HPWH ZONE INLET NODE_UNIT3_FRONTROW_MIDDLEFLOOR,Air,3
 Node,43,OA INLET NODE_UNIT3_FRONTROW_MIDDLEFLOOR,Air,3
 Node,44,ZONE EXHAUST NODE_UNIT3_FRONTROW_MIDDLEFLOOR,Air,3
 Node,45,ZONE EXHAUST NODE1_UNIT3_FRONTROW_MIDDLEFLOOR,Air,3
 Node,46,ZONE INLET NODE_UNIT1_BACKROW_MIDDLEFLOOR,Air,3
 Node,47,HPWH ZONE INLET NODE_UNIT1_BACKROW_MIDDLEFLOOR,Air,3
 Node,48,OA INLET NODE_UNIT1_BACKROW_MIDDLEFLOOR,Air,3
 Node,49,ZONE EXHAUST NODE_UNIT1_BACKROW_MIDDLEFLOOR,Air,3
 Node,50,ZONE EXHAUST NODE1_UNIT1_BACKROW_MIDDLEFLOOR,Air,3
 Node,51,ZONE INLET NODE_UNIT2_BACKROW_MIDDLEFLOOR,Air,3
 Node,52,HPWH ZONE INLET NODE_UNIT2_BACKROW_MIDDLEFLOOR,Air,3
 Node,53,OA INLET NODE_UNIT2_BACKROW_MIDDLEFLOOR,Air,3
 Node,54,ZONE EXHAUST NODE_UNIT2_BACKROW_MIDDLEFLOOR,Air,3
 Node,55,ZONE EXHAUST NODE1_UNIT2_BACKROW_MIDDLEFLOOR,Air,3
 Node,56,ZONE INLET NODE_UNIT3_BACKROW_MIDDLEFLOOR,Air,3
 Node,57,HPWH ZONE INLET NODE_UNIT3_BACKROW_MIDDLEFLOOR,Air,3
 Node,58,OA INLET NODE_UNIT3_BACKROW_MIDDLEFLOOR,Air,3
 Node,59,ZONE EXHAUST NODE_UNIT3_BACKROW_MIDDLEFLOOR,Air,3
 Node,60,ZONE EXHAUST NODE1_UNIT3_BACKROW_MIDDLEFLOOR,Air,3
 Node,61,ZONE INLET NODE_UNIT1_FRONTROW_TOPFLOOR,Air,3
 Node,62,HPWH ZONE INLET NODE_UNIT1_FRONTROW_TOPFLOOR,Air,3
 Node,63,OA INLET NODE_UNIT1_FRONTROW_TOPFLOOR,Air,3
 Node,64,ZONE EXHAUST NODE_UNIT1_FRONTROW_TOPFLOOR,Air,3
 Node,65,ZONE EXHAUST NODE1_UNIT1_FRONTROW_TOPFLOOR,Air,3
 Node,66,ZONE INLET NODE_UNIT2_FRONTROW_TOPFLOOR,Air,3
 Node,67,HPWH ZONE INLET NODE_UNIT2_FRONTROW_TOPFLOOR,Air,3
 Node,68,OA INLET NODE_UNIT2_FRONTROW_TOPFLOOR,Air,3
 Node,69,ZONE EXHAUST NODE_UNIT2_FRONTROW_TOPFLOOR,Air,3
 Node,70,ZONE EXHAUST NODE1_UNIT2_FRONTROW_TOPFLOOR,Air,3
 Node,71,ZONE INLET NODE_UNIT3_FRONTROW_TOPFLOOR,Air,3
 Node,72,HPWH ZONE INLET NODE_UNIT3_FRONTROW_TOPFLOOR,Air,3
 Node,73,OA INLET NODE_UNIT3_FRONTROW_TOPFLOOR,Air,3
 Node,74,ZONE EXHAUST NODE_UNIT3_FRONTROW_TOPFLOOR,Air,3
 Node,75,ZONE EXHAUST NODE1_UNIT3_FRONTROW_TOPFLOOR,Air,3
 Node,76,ZONE INLET NODE_UNIT1_BACKROW_TOPFLOOR,Air,3
 Node,77,HPWH ZONE INLET NODE_UNIT1_BACKROW_TOPFLOOR,Air,3
 Node,78,OA INLET NODE_UNIT1_BACKROW_TOPFLOOR,Air,3
 Node,79,ZONE EXHAUST NODE_UNIT1_BACKROW_TOPFLOOR,Air,3
 Node,80,ZONE EXHAUST NODE1_UNIT1_BACKROW_TOPFLOOR,Air,3
 Node,81,ZONE INLET NODE_UNIT2_BACKROW_TOPFLOOR,Air,3
 Node,82,HPWH ZONE INLET NODE_UNIT2_BACKROW_TOPFLOOR,Air,3
 Node,83,OA INLET NODE_UNIT2_BACKROW_TOPFLOOR,Air,3
 Node,84,ZONE EXHAUST NODE_UNIT2_BACKROW_TOPFLOOR,Air,3
 Node,85,ZONE EXHAUST NODE1_UNIT2_BACKROW_TOPFLOOR,Air,3
 Node,86,ZONE INLET NODE_UNIT3_BACKROW_TOPFLOOR,Air,3
 Node,87,HPWH ZONE INLET NODE_UNIT3_BACKROW_TOPFLOOR,Air,3
 Node,88,OA INLET NODE_UNIT3_BACKROW_TOPFLOOR,Air,3
 Node,89,ZONE EXHAUST NODE_UNIT3_BACKROW_TOPFLOOR,Air,3
 Node,90,ZONE EXHAUST NODE1_UNIT3_BACKROW_TOPFLOOR,Air,3
 Node,91,ZONE INLET NODE_UNITHEATEDBSMT,Air,3
 Node,92,OA INLET NODE_UNITHEATEDBSMT,Air,3
 Node,93,AIR LOOP INLET NODE_UNIT1_FRONTROW_BOTTOMFLOOR,Air,3
 Node,94,AIR LOOP OUTLET NODE_UNIT1_FRONTROW_BOTTOMFLOOR,Air,3
 Node,95,AIR LOOP INLET NODE_UNIT2_FRONTROW_BOTTOMFLOOR,Air,3
 Node,96,AIR LOOP OUTLET NODE_UNIT2_FRONTROW_BOTTOMFLOOR,Air,3
 Node,97,AIR LOOP INLET NODE_UNIT3_FRONTROW_BOTTOMFLOOR,Air,3
 Node,98,AIR LOOP OUTLET NODE_UNIT3_FRONTROW_BOTTOMFLOOR,Air,3
 Node,99,AIR LOOP INLET NODE_UNIT1_BACKROW_BOTTOMFLOOR,Air,3
 Node,100,AIR LOOP OUTLET NODE_UNIT1_BACKROW_BOTTOMFLOOR,Air,3
 Node,101,AIR LOOP INLET NODE_UNIT2_BACKROW_BOTTOMFLOOR,Air,3
 Node,102,AIR LOOP OUTLET NODE_UNIT2_BACKROW_BOTTOMFLOOR,Air,3
 Node,103,AIR LOOP INLET NODE_UNIT3_BACKROW_BOTTOMFLOOR,Air,3
 Node,104,AIR LOOP OUTLET NODE_UNIT3_BACKROW_BOTTOMFLOOR,Air,3
 Node,105,AIR LOOP INLET NODE_UNIT1_FRONTROW_MIDDLEFLOOR,Air,3
 Node,106,AIR LOOP OUTLET NODE_UNIT1_FRONTROW_MIDDLEFLOOR,Air,3
 Node,107,AIR LOOP INLET NODE_UNIT2_FRONTROW_MIDDLEFLOOR,Air,3
 Node,108,AIR LOOP OUTLET NODE_UNIT2_FRONTROW_MIDDLEFLOOR,Air,3
 Node,109,AIR LOOP INLET NODE_UNIT3_FRONTROW_MIDDLEFLOOR,Air,3
 Node,110,AIR LOOP OUTLET NODE_UNIT3_FRONTROW_MIDDLEFLOOR,Air,3
 Node,111,AIR LOOP INLET NODE_UNIT1_BACKROW_MIDDLEFLOOR,Air,3
 Node,112,AIR LOOP OUTLET NODE_UNIT1_BACKROW_MIDDLEFLOOR,Air,3
 Node,113,AIR LOOP INLET NODE_UNIT2_BACKROW_MIDDLEFLOOR,Air,3
 Node,114,AIR LOOP OUTLET NODE_UNIT2_BACKROW_MIDDLEFLOOR,Air,3
 Node,115,AIR LOOP INLET NODE_UNIT3_BACKROW_MIDDLEFLOOR,Air,3
 Node,116,AIR LOOP OUTLET NODE_UNIT3_BACKROW_MIDDLEFLOOR,Air,3
 Node,117,AIR LOOP INLET NODE_UNIT1_FRONTROW_TOPFLOOR,Air,3
 Node,118,AIR LOOP OUTLET NODE_UNIT1_FRONTROW_TOPFLOOR,Air,3
 Node,119,AIR LOOP INLET NODE_UNIT2_FRONTROW_TOPFLOOR,Air,3
 Node,120,AIR LOOP OUTLET NODE_UNIT2_FRONTROW_TOPFLOOR,Air,3
 Node,121,AIR LOOP INLET NODE_UNIT3_FRONTROW_TOPFLOOR,Air,3
 Node,122,AIR LOOP OUTLET NODE_UNIT3_FRONTROW_TOPFLOOR,Air,3
 Node,123,AIR LOOP INLET NODE_UNIT1_BACKROW_TOPFLOOR,Air,3
 Node,124,AIR LOOP OUTLET NODE_UNIT1_BACKROW_TOPFLOOR,Air,3
 Node,125,AIR LOOP INLET NODE_UNIT2_BACKROW_TOPFLOOR,Air,3
 Node,126,AIR LOOP OUTLET NODE_UNIT2_BACKROW_TOPFLOOR,Air,3
 Node,127,AIR LOOP INLET NODE_UNIT3_BACKROW_TOPFLOOR,Air,3
 Node,128,AIR LOOP OUTLET NODE_UNIT3_BACKROW_TOPFLOOR,Air,3
 Node,129,AIR LOOP INLET NODE_UNITHEATEDBSMT,Air,3
 Node,130,AIR LOOP OUTLET NODE_UNITHEATEDBSMT,Air,3
 Node,131,MAINS INLET NODE_UNIT1_FRONTROW_BOTTOMFLOOR,Water,2
 Node,132,MAINS PRESSURE OUTLET NODE_UNIT1_FRONTROW_BOTTOMFLOOR,Water,1
 Node,133,DHW SUPPLY OUTLET PIPE INLET NODE_UNIT1_FRONTROW_BOTTOMFLOOR,Water,1
 Node,134,DHW SUPPLY OUTLET NODE_UNIT1_FRONTROW_BOTTOMFLOOR,Water,4
 Node,135,DHW DEMAND INLET NODE_UNIT1_FRONTROW_BOTTOMFLOOR,Water,2
 Node,136,DHW DEMAND INLET PIPE OUTLET NODE_UNIT1_FRONTROW_BOTTOMFLOOR,Water,1
 Node,137,WATER SINK INLET NODE_UNIT1_FRONTROW_BOTTOMFLOOR,Water,1
 Node,138,WATER SINK OUTLET NODE_UNIT1_FRONTROW_BOTTOMFLOOR,Water,1
 Node,139,WATER SHOWER INLET NODE_UNIT1_FRONTROW_BOTTOMFLOOR,Water,1
 Node,140,WATER SHOWER OUTLET NODE_UNIT1_FRONTROW_BOTTOMFLOOR,Water,1
 Node,141,WATER CLOTHESWASHER INLET NODE_UNIT1_FRONTROW_BOTTOMFLOOR,Water,1
 Node,142,WATER CLOTHESWASHER OUTLET NODE_UNIT1_FRONTROW_BOTTOMFLOOR,Water,1
 Node,143,WATER DISHWASHER INLET NODE_UNIT1_FRONTROW_BOTTOMFLOOR,Water,1
 Node,144,WATER DISHWASHER OUTLET NODE_UNIT1_FRONTROW_BOTTOMFLOOR,Water,1
 Node,145,WATER BATH INLET NODE_UNIT1_FRONTROW_BOTTOMFLOOR,Water,1
 Node,146,WATER BATH OUTLET NODE_UNIT1_FRONTROW_BOTTOMFLOOR,Water,1
 Node,147,MAINS MAKEUP PIPE INLET NODE_UNIT1_FRONTROW_BOTTOMFLOOR,Water,1
 Node,148,MAINS MAKEUP NODE_UNIT1_FRONTROW_BOTTOMFLOOR,Water,2
 Node,149,WATER HEATER USE INLET NODE_UNIT1_FRONTROW_BOTTOMFLOOR,Water,2
 Node,150,WATER HEATER USE OUTLET NODE_UNIT1_FRONTROW_BOTTOMFLOOR,Water,2
 Node,151,MAINS INLET NODE_UNIT2_FRONTROW_BOTTOMFLOOR,Water,2
 Node,152,MAINS PRESSURE OUTLET NODE_UNIT2_FRONTROW_BOTTOMFLOOR,Water,1
 Node,153,DHW SUPPLY OUTLET PIPE INLET NODE_UNIT2_FRONTROW_BOTTOMFLOOR,Water,1
 Node,154,DHW SUPPLY OUTLET NODE_UNIT2_FRONTROW_BOTTOMFLOOR,Water,4
 Node,155,DHW DEMAND INLET NODE_UNIT2_FRONTROW_BOTTOMFLOOR,Water,2
 Node,156,DHW DEMAND INLET PIPE OUTLET NODE_UNIT2_FRONTROW_BOTTOMFLOOR,Water,1
 Node,157,WATER SINK INLET NODE_UNIT2_FRONTROW_BOTTOMFLOOR,Water,1
 Node,158,WATER SINK OUTLET NODE_UNIT2_FRONTROW_BOTTOMFLOOR,Water,1
 Node,159,WATER SHOWER INLET NODE_UNIT2_FRONTROW_BOTTOMFLOOR,Water,1
 Node,160,WATER SHOWER OUTLET NODE_UNIT2_FRONTROW_BOTTOMFLOOR,Water,1
 Node,161,WATER CLOTHESWASHER INLET NODE_UNIT2_FRONTROW_BOTTOMFLOOR,Water,1
 Node,162,WATER CLOTHESWASHER OUTLET NODE_UNIT2_FRONTROW_BOTTOMFLOOR,Water,1
 Node,163,WATER DISHWASHER INLET NODE_UNIT2_FRONTROW_BOTTOMFLOOR,Water,1
 Node,164,WATER DISHWASHER OUTLET NODE_UNIT2_FRONTROW_BOTTOMFLOOR,Water,1
 Node,165,WATER BATH INLET NODE_UNIT2_FRONTROW_BOTTOMFLOOR,Water,1
 Node,166,WATER BATH OUTLET NODE_UNIT2_FRONTROW_BOTTOMFLOOR,Water,1
 Node,167,MAINS MAKEUP PIPE INLET NODE_UNIT2_FRONTROW_BOTTOMFLOOR,Water,1
 Node,168,MAINS MAKEUP NODE_UNIT2_FRONTROW_BOTTOMFLOOR,Water,2
 Node,169,WATER HEATER USE INLET NODE_UNIT2_FRONTROW_BOTTOMFLOOR,Water,2
 Node,170,WATER HEATER USE OUTLET NODE_UNIT2_FRONTROW_BOTTOMFLOOR,Water,2
 Node,171,MAINS INLET NODE_UNIT3_FRONTROW_BOTTOMFLOOR,Water,2
 Node,172,MAINS PRESSURE OUTLET NODE_UNIT3_FRONTROW_BOTTOMFLOOR,Water,1
 Node,173,DHW SUPPLY OUTLET PIPE INLET NODE_UNIT3_FRONTROW_BOTTOMFLOOR,Water,1
 Node,174,DHW SUPPLY OUTLET NODE_UNIT3_FRONTROW_BOTTOMFLOOR,Water,4
 Node,175,DHW DEMAND INLET NODE_UNIT3_FRONTROW_BOTTOMFLOOR,Water,2
 Node,176,DHW DEMAND INLET PIPE OUTLET NODE_UNIT3_FRONTROW_BOTTOMFLOOR,Water,1
 Node,177,WATER SINK INLET NODE_UNIT3_FRONTROW_BOTTOMFLOOR,Water,1
 Node,178,WATER SINK OUTLET NODE_UNIT3_FRONTROW_BOTTOMFLOOR,Water,1
 Node,179,WATER SHOWER INLET NODE_UNIT3_FRONTROW_BOTTOMFLOOR,Water,1
 Node,180,WATER SHOWER OUTLET NODE_UNIT3_FRONTROW_BOTTOMFLOOR,Water,1
 Node,181,WATER CLOTHESWASHER INLET NODE_UNIT3_FRONTROW_BOTTOMFLOOR,Water,1
 Node,182,WATER CLOTHESWASHER OUTLET NODE_UNIT3_FRONTROW_BOTTOMFLOOR,Water,1
 Node,183,WATER DISHWASHER INLET NODE_UNIT3_FRONTROW_BOTTOMFLOOR,Water,1
 Node,184,WATER DISHWASHER OUTLET NODE_UNIT3_FRONTROW_BOTTOMFLOOR,Water,1
 Node,185,WATER BATH INLET NODE_UNIT3_FRONTROW_BOTTOMFLOOR,Water,1
 Node,186,WATER BATH OUTLET NODE_UNIT3_FRONTROW_BOTTOMFLOOR,Water,1
 Node,187,MAINS MAKEUP PIPE INLET NODE_UNIT3_FRONTROW_BOTTOMFLOOR,Water,1
 Node,188,MAINS MAKEUP NODE_UNIT3_FRONTROW_BOTTOMFLOOR,Water,2
 Node,189,WATER HEATER USE INLET NODE_UNIT3_FRONTROW_BOTTOMFLOOR,Water,2
 Node,190,WATER HEATER USE OUTLET NODE_UNIT3_FRONTROW_BOTTOMFLOOR,Water,2
 Node,191,MAINS INLET NODE_UNIT1_BACKROW_BOTTOMFLOOR,Water,2
 Node,192,MAINS PRESSURE OUTLET NODE_UNIT1_BACKROW_BOTTOMFLOOR,Water,1
 Node,193,DHW SUPPLY OUTLET PIPE INLET NODE_UNIT1_BACKROW_BOTTOMFLOOR,Water,1
 Node,194,DHW SUPPLY OUTLET NODE_UNIT1_BACKROW_BOTTOMFLOOR,Water,4
 Node,195,DHW DEMAND INLET NODE_UNIT1_BACKROW_BOTTOMFLOOR,Water,2
 Node,196,DHW DEMAND INLET PIPE OUTLET NODE_UNIT1_BACKROW_BOTTOMFLOOR,Water,1
 Node,197,WATER SINK INLET NODE_UNIT1_BACKROW_BOTTOMFLOOR,Water,1
 Node,198,WATER SINK OUTLET NODE_UNIT1_BACKROW_BOTTOMFLOOR,Water,1
 Node,199,WATER SHOWER INLET NODE_UNIT1_BACKROW_BOTTOMFLOOR,Water,1
 Node,200,WATER SHOWER OUTLET NODE_UNIT1_BACKROW_BOTTOMFLOOR,Water,1
 Node,201,WATER CLOTHESWASHER INLET NODE_UNIT1_BACKROW_BOTTOMFLOOR,Water,1
 Node,202,WATER CLOTHESWASHER OUTLET NODE_UNIT1_BACKROW_BOTTOMFLOOR,Water,1
 Node,203,WATER DISHWASHER INLET NODE_UNIT1_BACKROW_BOTTOMFLOOR,Water,1
 Node,204,WATER DISHWASHER OUTLET NODE_UNIT1_BACKROW_BOTTOMFLOOR,Water,1
 Node,205,WATER BATH INLET NODE_UNIT1_BACKROW_BOTTOMFLOOR,Water,1
 Node,206,WATER BATH OUTLET NODE_UNIT1_BACKROW_BOTTOMFLOOR,Water,1
 Node,207,MAINS MAKEUP PIPE INLET NODE_UNIT1_BACKROW_BOTTOMFLOOR,Water,1
 Node,208,MAINS MAKEUP NODE_UNIT1_BACKROW_BOTTOMFLOOR,Water,2
 Node,209,WATER HEATER USE INLET NODE_UNIT1_BACKROW_BOTTOMFLOOR,Water,2
 Node,210,WATER HEATER USE OUTLET NODE_UNIT1_BACKROW_BOTTOMFLOOR,Water,2
 Node,211,MAINS INLET NODE_UNIT2_BACKROW_BOTTOMFLOOR,Water,2
 Node,212,MAINS PRESSURE OUTLET NODE_UNIT2_BACKROW_BOTTOMFLOOR,Water,1
 Node,213,DHW SUPPLY OUTLET PIPE INLET NODE_UNIT2_BACKROW_BOTTOMFLOOR,Water,1
 Node,214,DHW SUPPLY OUTLET NODE_UNIT2_BACKROW_BOTTOMFLOOR,Water,4
 Node,215,DHW DEMAND INLET NODE_UNIT2_BACKROW_BOTTOMFLOOR,Water,2
 Node,216,DHW DEMAND INLET PIPE OUTLET NODE_UNIT2_BACKROW_BOTTOMFLOOR,Water,1
 Node,217,WATER SINK INLET NODE_UNIT2_BACKROW_BOTTOMFLOOR,Water,1
 Node,218,WATER SINK OUTLET NODE_UNIT2_BACKROW_BOTTOMFLOOR,Water,1
 Node,219,WATER SHOWER INLET NODE_UNIT2_BACKROW_BOTTOMFLOOR,Water,1
 Node,220,WATER SHOWER OUTLET NODE_UNIT2_BACKROW_BOTTOMFLOOR,Water,1
 Node,221,WATER CLOTHESWASHER INLET NODE_UNIT2_BACKROW_BOTTOMFLOOR,Water,1
 Node,222,WATER CLOTHESWASHER OUTLET NODE_UNIT2_BACKROW_BOTTOMFLOOR,Water,1
 Node,223,WATER DISHWASHER INLET NODE_UNIT2_BACKROW_BOTTOMFLOOR,Water,1
 Node,224,WATER DISHWASHER OUTLET NODE_UNIT2_BACKROW_BOTTOMFLOOR,Water,1
 Node,225,WATER BATH INLET NODE_UNIT2_BACKROW_BOTTOMFLOOR,Water,1
 Node,226,WATER BATH OUTLET NODE_UNIT2_BACKROW_BOTTOMFLOOR,Water,1
 Node,227,MAINS MAKEUP PIPE INLET NODE_UNIT2_BACKROW_BOTTOMFLOOR,Water,1
 Node,228,MAINS MAKEUP NODE_UNIT2_BACKROW_BOTTOMFLOOR,Water,2
 Node,229,WATER HEATER USE INLET NODE_UNIT2_BACKROW_BOTTOMFLOOR,Water,2
 Node,230,WATER HEATER USE OUTLET NODE_UNIT2_BACKROW_BOTTOMFLOOR,Water,2
 Node,231,MAINS INLET NODE_UNIT3_BACKROW_BOTTOMFLOOR,Water,2
 Node,232,MAINS PRESSURE OUTLET NODE_UNIT3_BACKROW_BOTTOMFLOOR,Water,1
 Node,233,DHW SUPPLY OUTLET PIPE INLET NODE_UNIT3_BACKROW_BOTTOMFLOOR,Water,1
 Node,234,DHW SUPPLY OUTLET NODE_UNIT3_BACKROW_BOTTOMFLOOR,Water,4
 Node,235,DHW DEMAND INLET NODE_UNIT3_BACKROW_BOTTOMFLOOR,Water,2
 Node,236,DHW DEMAND INLET PIPE OUTLET NODE_UNIT3_BACKROW_BOTTOMFLOOR,Water,1
 Node,237,WATER SINK INLET NODE_UNIT3_BACKROW_BOTTOMFLOOR,Water,1
 Node,238,WATER SINK OUTLET NODE_UNIT3_BACKROW_BOTTOMFLOOR,Water,1
 Node,239,WATER SHOWER INLET NODE_UNIT3_BACKROW_BOTTOMFLOOR,Water,1
 Node,240,WATER SHOWER OUTLET NODE_UNIT3_BACKROW_BOTTOMFLOOR,Water,1
 Node,241,WATER CLOTHESWASHER INLET NODE_UNIT3_BACKROW_BOTTOMFLOOR,Water,1
 Node,242,WATER CLOTHESWASHER OUTLET NODE_UNIT3_BACKROW_BOTTOMFLOOR,Water,1
 Node,243,WATER DISHWASHER INLET NODE_UNIT3_BACKROW_BOTTOMFLOOR,Water,1
 Node,244,WATER DISHWASHER OUTLET NODE_UNIT3_BACKROW_BOTTOMFLOOR,Water,1
 Node,245,WATER BATH INLET NODE_UNIT3_BACKROW_BOTTOMFLOOR,Water,1
 Node,246,WATER BATH OUTLET NODE_UNIT3_BACKROW_BOTTOMFLOOR,Water,1
 Node,247,MAINS MAKEUP PIPE INLET NODE_UNIT3_BACKROW_BOTTOMFLOOR,Water,1
 Node,248,MAINS MAKEUP NODE_UNIT3_BACKROW_BOTTOMFLOOR,Water,2
 Node,249,WATER HEATER USE INLET NODE_UNIT3_BACKROW_BOTTOMFLOOR,Water,2
 Node,250,WATER HEATER USE OUTLET NODE_UNIT3_BACKROW_BOTTOMFLOOR,Water,2
 Node,251,MAINS INLET NODE_UNIT1_FRONTROW_MIDDLEFLOOR,Water,2
 Node,252,MAINS PRESSURE OUTLET NODE_UNIT1_FRONTROW_MIDDLEFLOOR,Water,1
 Node,253,DHW SUPPLY OUTLET PIPE INLET NODE_UNIT1_FRONTROW_MIDDLEFLOOR,Water,1
 Node,254,DHW SUPPLY OUTLET NODE_UNIT1_FRONTROW_MIDDLEFLOOR,Water,4
 Node,255,DHW DEMAND INLET NODE_UNIT1_FRONTROW_MIDDLEFLOOR,Water,2
 Node,256,DHW DEMAND INLET PIPE OUTLET NODE_UNIT1_FRONTROW_MIDDLEFLOOR,Water,1
 Node,257,WATER SINK INLET NODE_UNIT1_FRONTROW_MIDDLEFLOOR,Water,1
 Node,258,WATER SINK OUTLET NODE_UNIT1_FRONTROW_MIDDLEFLOOR,Water,1
 Node,259,WATER SHOWER INLET NODE_UNIT1_FRONTROW_MIDDLEFLOOR,Water,1
 Node,260,WATER SHOWER OUTLET NODE_UNIT1_FRONTROW_MIDDLEFLOOR,Water,1
 Node,261,WATER CLOTHESWASHER INLET NODE_UNIT1_FRONTROW_MIDDLEFLOOR,Water,1
 Node,262,WATER CLOTHESWASHER OUTLET NODE_UNIT1_FRONTROW_MIDDLEFLOOR,Water,1
 Node,263,WATER DISHWASHER INLET NODE_UNIT1_FRONTROW_MIDDLEFLOOR,Water,1
 Node,264,WATER DISHWASHER OUTLET NODE_UNIT1_FRONTROW_MIDDLEFLOOR,Water,1
 Node,265,WATER BATH INLET NODE_UNIT1_FRONTROW_MIDDLEFLOOR,Water,1
 Node,266,WATER BATH OUTLET NODE_UNIT1_FRONTROW_MIDDLEFLOOR,Water,1
 Node,267,MAINS MAKEUP PIPE INLET NODE_UNIT1_FRONTROW_MIDDLEFLOOR,Water,1
 Node,268,MAINS MAKEUP NODE_UNIT1_FRONTROW_MIDDLEFLOOR,Water,2
 Node,269,WATER HEATER USE INLET NODE_UNIT1_FRONTROW_MIDDLEFLOOR,Water,2
 Node,270,WATER HEATER USE OUTLET NODE_UNIT1_FRONTROW_MIDDLEFLOOR,Water,2
 Node,271,MAINS INLET NODE_UNIT2_FRONTROW_MIDDLEFLOOR,Water,2
 Node,272,MAINS PRESSURE OUTLET NODE_UNIT2_FRONTROW_MIDDLEFLOOR,Water,1
 Node,273,DHW SUPPLY OUTLET PIPE INLET NODE_UNIT2_FRONTROW_MIDDLEFLOOR,Water,1
 Node,274,DHW SUPPLY OUTLET NODE_UNIT2_FRONTROW_MIDDLEFLOOR,Water,4
 Node,275,DHW DEMAND INLET NODE_UNIT2_FRONTROW_MIDDLEFLOOR,Water,2
 Node,276,DHW DEMAND INLET PIPE OUTLET NODE_UNIT2_FRONTROW_MIDDLEFLOOR,Water,1
 Node,277,WATER SINK INLET NODE_UNIT2_FRONTROW_MIDDLEFLOOR,Water,1
 Node,278,WATER SINK OUTLET NODE_UNIT2_FRONTROW_MIDDLEFLOOR,Water,1
 Node,279,WATER SHOWER INLET NODE_UNIT2_FRONTROW_MIDDLEFLOOR,Water,1
 Node,280,WATER SHOWER OUTLET NODE_UNIT2_FRONTROW_MIDDLEFLOOR,Water,1
 Node,281,WATER CLOTHESWASHER INLET NODE_UNIT2_FRONTROW_MIDDLEFLOOR,Water,1
 Node,282,WATER CLOTHESWASHER OUTLET NODE_UNIT2_FRONTROW_MIDDLEFLOOR,Water,1
 Node,283,WATER DISHWASHER INLET NODE_UNIT2_FRONTROW_MIDDLEFLOOR,Water,1
 Node,284,WATER DISHWASHER OUTLET NODE_UNIT2_FRONTROW_MIDDLEFLOOR,Water,1
 Node,285,WATER BATH INLET NODE_UNIT2_FRONTROW_MIDDLEFLOOR,Water,1
 Node,286,WATER BATH OUTLET NODE_UNIT2_FRONTROW_MIDDLEFLOOR,Water,1
 Node,287,MAINS MAKEUP PIPE INLET NODE_UNIT2_FRONTROW_MIDDLEFLOOR,Water,1
 Node,288,MAINS MAKEUP NODE_UNIT2_FRONTROW_MIDDLEFLOOR,Water,2
 Node,289,WATER HEATER USE INLET NODE_UNIT2_FRONTROW_MIDDLEFLOOR,Water,2
 Node,290,WATER HEATER USE OUTLET NODE_UNIT2_FRONTROW_MIDDLEFLOOR,Water,2
 Node,291,MAINS INLET NODE_UNIT3_FRONTROW_MIDDLEFLOOR,Water,2
 Node,292,MAINS PRESSURE OUTLET NODE_UNIT3_FRONTROW_MIDDLEFLOOR,Water,1
 Node,293,DHW SUPPLY OUTLET PIPE INLET NODE_UNIT3_FRONTROW_MIDDLEFLOOR,Water,1
 Node,294,DHW SUPPLY OUTLET NODE_UNIT3_FRONTROW_MIDDLEFLOOR,Water,4
 Node,295,DHW DEMAND INLET NODE_UNIT3_FRONTROW_MIDDLEFLOOR,Water,2
 Node,296,DHW DEMAND INLET PIPE OUTLET NODE_UNIT3_FRONTROW_MIDDLEFLOOR,Water,1
 Node,297,WATER SINK INLET NODE_UNIT3_FRONTROW_MIDDLEFLOOR,Water,1
 Node,298,WATER SINK OUTLET NODE_UNIT3_FRONTROW_MIDDLEFLOOR,Water,1
 Node,299,WATER SHOWER INLET NODE_UNIT3_FRONTROW_MIDDLEFLOOR,Water,1
 Node,300,WATER SHOWER OUTLET NODE_UNIT3_FRONTROW_MIDDLEFLOOR,Water,1
 Node,301,WATER CLOTHESWASHER INLET NODE_UNIT3_FRONTROW_MIDDLEFLOOR,Water,1
 Node,302,WATER CLOTHESWASHER OUTLET NODE_UNIT3_FRONTROW_MIDDLEFLOOR,Water,1
 Node,303,WATER DISHWASHER INLET NODE_UNIT3_FRONTROW_MIDDLEFLOOR,Water,1
 Node,304,WATER DISHWASHER OUTLET NODE_UNIT3_FRONTROW_MIDDLEFLOOR,Water,1
 Node,305,WATER BATH INLET NODE_UNIT3_FRONTROW_MIDDLEFLOOR,Water,1
 Node,306,WATER BATH OUTLET NODE_UNIT3_FRONTROW_MIDDLEFLOOR,Water,1
 Node,307,MAINS MAKEUP PIPE INLET NODE_UNIT3_FRONTROW_MIDDLEFLOOR,Water,1
 Node,308,MAINS MAKEUP NODE_UNIT3_FRONTROW_MIDDLEFLOOR,Water,2
 Node,309,WATER HEATER USE INLET NODE_UNIT3_FRONTROW_MIDDLEFLOOR,Water,2
 Node,310,WATER HEATER USE OUTLET NODE_UNIT3_FRONTROW_MIDDLEFLOOR,Water,2
 Node,311,MAINS INLET NODE_UNIT1_BACKROW_MIDDLEFLOOR,Water,2
 Node,312,MAINS PRESSURE OUTLET NODE_UNIT1_BACKROW_MIDDLEFLOOR,Water,1
 Node,313,DHW SUPPLY OUTLET PIPE INLET NODE_UNIT1_BACKROW_MIDDLEFLOOR,Water,1
 Node,314,DHW SUPPLY OUTLET NODE_UNIT1_BACKROW_MIDDLEFLOOR,Water,4
 Node,315,DHW DEMAND INLET NODE_UNIT1_BACKROW_MIDDLEFLOOR,Water,2
 Node,316,DHW DEMAND INLET PIPE OUTLET NODE_UNIT1_BACKROW_MIDDLEFLOOR,Water,1
 Node,317,WATER SINK INLET NODE_UNIT1_BACKROW_MIDDLEFLOOR,Water,1
 Node,318,WATER SINK OUTLET NODE_UNIT1_BACKROW_MIDDLEFLOOR,Water,1
 Node,319,WATER SHOWER INLET NODE_UNIT1_BACKROW_MIDDLEFLOOR,Water,1
 Node,320,WATER SHOWER OUTLET NODE_UNIT1_BACKROW_MIDDLEFLOOR,Water,1
 Node,321,WATER CLOTHESWASHER INLET NODE_UNIT1_BACKROW_MIDDLEFLOOR,Water,1
 Node,322,WATER CLOTHESWASHER OUTLET NODE_UNIT1_BACKROW_MIDDLEFLOOR,Water,1
 Node,323,WATER DISHWASHER INLET NODE_UNIT1_BACKROW_MIDDLEFLOOR,Water,1
 Node,324,WATER DISHWASHER OUTLET NODE_UNIT1_BACKROW_MIDDLEFLOOR,Water,1
 Node,325,WATER BATH INLET NODE_UNIT1_BACKROW_MIDDLEFLOOR,Water,1
 Node,326,WATER BATH OUTLET NODE_UNIT1_BACKROW_MIDDLEFLOOR,Water,1
 Node,327,MAINS MAKEUP PIPE INLET NODE_UNIT1_BACKROW_MIDDLEFLOOR,Water,1
 Node,328,MAINS MAKEUP NODE_UNIT1_BACKROW_MIDDLEFLOOR,Water,2
 Node,329,WATER HEATER USE INLET NODE_UNIT1_BACKROW_MIDDLEFLOOR,Water,2
 Node,330,WATER HEATER USE OUTLET NODE_UNIT1_BACKROW_MIDDLEFLOOR,Water,2
 Node,331,MAINS INLET NODE_UNIT2_BACKROW_MIDDLEFLOOR,Water,2
 Node,332,MAINS PRESSURE OUTLET NODE_UNIT2_BACKROW_MIDDLEFLOOR,Water,1
 Node,333,DHW SUPPLY OUTLET PIPE INLET NODE_UNIT2_BACKROW_MIDDLEFLOOR,Water,1
 Node,334,DHW SUPPLY OUTLET NODE_UNIT2_BACKROW_MIDDLEFLOOR,Water,4
 Node,335,DHW DEMAND INLET NODE_UNIT2_BACKROW_MIDDLEFLOOR,Water,2
 Node,336,DHW DEMAND INLET PIPE OUTLET NODE_UNIT2_BACKROW_MIDDLEFLOOR,Water,1
 Node,337,WATER SINK INLET NODE_UNIT2_BACKROW_MIDDLEFLOOR,Water,1
 Node,338,WATER SINK OUTLET NODE_UNIT2_BACKROW_MIDDLEFLOOR,Water,1
 Node,339,WATER SHOWER INLET NODE_UNIT2_BACKROW_MIDDLEFLOOR,Water,1
 Node,340,WATER SHOWER OUTLET NODE_UNIT2_BACKROW_MIDDLEFLOOR,Water,1
 Node,341,WATER CLOTHESWASHER INLET NODE_UNIT2_BACKROW_MIDDLEFLOOR,Water,1
 Node,342,WATER CLOTHESWASHER OUTLET NODE_UNIT2_BACKROW_MIDDLEFLOOR,Water,1
 Node,343,WATER DISHWASHER INLET NODE_UNIT2_BACKROW_MIDDLEFLOOR,Water,1
 Node,344,WATER DISHWASHER OUTLET NODE_UNIT2_BACKROW_MIDDLEFLOOR,Water,1
 Node,345,WATER BATH INLET NODE_UNIT2_BACKROW_MIDDLEFLOOR,Water,1
 Node,346,WATER BATH OUTLET NODE_UNIT2_BACKROW_MIDDLEFLOOR,Water,1
 Node,347,MAINS MAKEUP PIPE INLET NODE_UNIT2_BACKROW_MIDDLEFLOOR,Water,1
 Node,348,MAINS MAKEUP NODE_UNIT2_BACKROW_MIDDLEFLOOR,Water,2
 Node,349,WATER HEATER USE INLET NODE_UNIT2_BACKROW_MIDDLEFLOOR,Water,2
 Node,350,WATER HEATER USE OUTLET NODE_UNIT2_BACKROW_MIDDLEFLOOR,Water,2
 Node,351,MAINS INLET NODE_UNIT3_BACKROW_MIDDLEFLOOR,Water,2
 Node,352,MAINS PRESSURE OUTLET NODE_UNIT3_BACKROW_MIDDLEFLOOR,Water,1
 Node,353,DHW SUPPLY OUTLET PIPE INLET NODE_UNIT3_BACKROW_MIDDLEFLOOR,Water,1
 Node,354,DHW SUPPLY OUTLET NODE_UNIT3_BACKROW_MIDDLEFLOOR,Water,4
 Node,355,DHW DEMAND INLET NODE_UNIT3_BACKROW_MIDDLEFLOOR,Water,2
 Node,356,DHW DEMAND INLET PIPE OUTLET NODE_UNIT3_BACKROW_MIDDLEFLOOR,Water,1
 Node,357,WATER SINK INLET NODE_UNIT3_BACKROW_MIDDLEFLOOR,Water,1
 Node,358,WATER SINK OUTLET NODE_UNIT3_BACKROW_MIDDLEFLOOR,Water,1
 Node,359,WATER SHOWER INLET NODE_UNIT3_BACKROW_MIDDLEFLOOR,Water,1
 Node,360,WATER SHOWER OUTLET NODE_UNIT3_BACKROW_MIDDLEFLOOR,Water,1
 Node,361,WATER CLOTHESWASHER INLET NODE_UNIT3_BACKROW_MIDDLEFLOOR,Water,1
 Node,362,WATER CLOTHESWASHER OUTLET NODE_UNIT3_BACKROW_MIDDLEFLOOR,Water,1
 Node,363,WATER DISHWASHER INLET NODE_UNIT3_BACKROW_MIDDLEFLOOR,Water,1
 Node,364,WATER DISHWASHER OUTLET NODE_UNIT3_BACKROW_MIDDLEFLOOR,Water,1
 Node,365,WATER BATH INLET NODE_UNIT3_BACKROW_MIDDLEFLOOR,Water,1
 Node,366,WATER BATH OUTLET NODE_UNIT3_BACKROW_MIDDLEFLOOR,Water,1
 Node,367,MAINS MAKEUP PIPE INLET NODE_UNIT3_BACKROW_MIDDLEFLOOR,Water,1
 Node,368,MAINS MAKEUP NODE_UNIT3_BACKROW_MIDDLEFLOOR,Water,2
 Node,369,WATER HEATER USE INLET NODE_UNIT3_BACKROW_MIDDLEFLOOR,Water,2
 Node,370,WATER HEATER USE OUTLET NODE_UNIT3_BACKROW_MIDDLEFLOOR,Water,2
 Node,371,MAINS INLET NODE_UNIT1_FRONTROW_TOPFLOOR,Water,2
 Node,372,MAINS PRESSURE OUTLET NODE_UNIT1_FRONTROW_TOPFLOOR,Water,1
 Node,373,DHW SUPPLY OUTLET PIPE INLET NODE_UNIT1_FRONTROW_TOPFLOOR,Water,1
 Node,374,DHW SUPPLY OUTLET NODE_UNIT1_FRONTROW_TOPFLOOR,Water,4
 Node,375,DHW DEMAND INLET NODE_UNIT1_FRONTROW_TOPFLOOR,Water,2
 Node,376,DHW DEMAND INLET PIPE OUTLET NODE_UNIT1_FRONTROW_TOPFLOOR,Water,1
 Node,377,WATER SINK INLET NODE_UNIT1_FRONTROW_TOPFLOOR,Water,1
 Node,378,WATER SINK OUTLET NODE_UNIT1_FRONTROW_TOPFLOOR,Water,1
 Node,379,WATER SHOWER INLET NODE_UNIT1_FRONTROW_TOPFLOOR,Water,1
 Node,380,WATER SHOWER OUTLET NODE_UNIT1_FRONTROW_TOPFLOOR,Water,1
 Node,381,WATER CLOTHESWASHER INLET NODE_UNIT1_FRONTROW_TOPFLOOR,Water,1
 Node,382,WATER CLOTHESWASHER OUTLET NODE_UNIT1_FRONTROW_TOPFLOOR,Water,1
 Node,383,WATER DISHWASHER INLET NODE_UNIT1_FRONTROW_TOPFLOOR,Water,1
 Node,384,WATER DISHWASHER OUTLET NODE_UNIT1_FRONTROW_TOPFLOOR,Water,1
 Node,385,WATER BATH INLET NODE_UNIT1_FRONTROW_TOPFLOOR,Water,1
 Node,386,WATER BATH OUTLET NODE_UNIT1_FRONTROW_TOPFLOOR,Water,1
 Node,387,MAINS MAKEUP PIPE INLET NODE_UNIT1_FRONTROW_TOPFLOOR,Water,1
 Node,388,MAINS MAKEUP NODE_UNIT1_FRONTROW_TOPFLOOR,Water,2
 Node,389,WATER HEATER USE INLET NODE_UNIT1_FRONTROW_TOPFLOOR,Water,2
 Node,390,WATER HEATER USE OUTLET NODE_UNIT1_FRONTROW_TOPFLOOR,Water,2
 Node,391,MAINS INLET NODE_UNIT2_FRONTROW_TOPFLOOR,Water,2
 Node,392,MAINS PRESSURE OUTLET NODE_UNIT2_FRONTROW_TOPFLOOR,Water,1
 Node,393,DHW SUPPLY OUTLET PIPE INLET NODE_UNIT2_FRONTROW_TOPFLOOR,Water,1
 Node,394,DHW SUPPLY OUTLET NODE_UNIT2_FRONTROW_TOPFLOOR,Water,4
 Node,395,DHW DEMAND INLET NODE_UNIT2_FRONTROW_TOPFLOOR,Water,2
 Node,396,DHW DEMAND INLET PIPE OUTLET NODE_UNIT2_FRONTROW_TOPFLOOR,Water,1
 Node,397,WATER SINK INLET NODE_UNIT2_FRONTROW_TOPFLOOR,Water,1
 Node,398,WATER SINK OUTLET NODE_UNIT2_FRONTROW_TOPFLOOR,Water,1
 Node,399,WATER SHOWER INLET NODE_UNIT2_FRONTROW_TOPFLOOR,Water,1
 Node,400,WATER SHOWER OUTLET NODE_UNIT2_FRONTROW_TOPFLOOR,Water,1
 Node,401,WATER CLOTHESWASHER INLET NODE_UNIT2_FRONTROW_TOPFLOOR,Water,1
 Node,402,WATER CLOTHESWASHER OUTLET NODE_UNIT2_FRONTROW_TOPFLOOR,Water,1
 Node,403,WATER DISHWASHER INLET NODE_UNIT2_FRONTROW_TOPFLOOR,Water,1
 Node,404,WATER DISHWASHER OUTLET NODE_UNIT2_FRONTROW_TOPFLOOR,Water,1
 Node,405,WATER BATH INLET NODE_UNIT2_FRONTROW_TOPFLOOR,Water,1
 Node,406,WATER BATH OUTLET NODE_UNIT2_FRONTROW_TOPFLOOR,Water,1
 Node,407,MAINS MAKEUP PIPE INLET NODE_UNIT2_FRONTROW_TOPFLOOR,Water,1
 Node,408,MAINS MAKEUP NODE_UNIT2_FRONTROW_TOPFLOOR,Water,2
 Node,409,WATER HEATER USE INLET NODE_UNIT2_FRONTROW_TOPFLOOR,Water,2
 Node,410,WATER HEATER USE OUTLET NODE_UNIT2_FRONTROW_TOPFLOOR,Water,2
 Node,411,MAINS INLET NODE_UNIT3_FRONTROW_TOPFLOOR,Water,2
 Node,412,MAINS PRESSURE OUTLET NODE_UNIT3_FRONTROW_TOPFLOOR,Water,1
 Node,413,DHW SUPPLY OUTLET PIPE INLET NODE_UNIT3_FRONTROW_TOPFLOOR,Water,1
 Node,414,DHW SUPPLY OUTLET NODE_UNIT3_FRONTROW_TOPFLOOR,Water,4
 Node,415,DHW DEMAND INLET NODE_UNIT3_FRONTROW_TOPFLOOR,Water,2
 Node,416,DHW DEMAND INLET PIPE OUTLET NODE_UNIT3_FRONTROW_TOPFLOOR,Water,1
 Node,417,WATER SINK INLET NODE_UNIT3_FRONTROW_TOPFLOOR,Water,1
 Node,418,WATER SINK OUTLET NODE_UNIT3_FRONTROW_TOPFLOOR,Water,1
 Node,419,WATER SHOWER INLET NODE_UNIT3_FRONTROW_TOPFLOOR,Water,1
 Node,420,WATER SHOWER OUTLET NODE_UNIT3_FRONTROW_TOPFLOOR,Water,1
 Node,421,WATER CLOTHESWASHER INLET NODE_UNIT3_FRONTROW_TOPFLOOR,Water,1
 Node,422,WATER CLOTHESWASHER OUTLET NODE_UNIT3_FRONTROW_TOPFLOOR,Water,1
 Node,423,WATER DISHWASHER INLET NODE_UNIT3_FRONTROW_TOPFLOOR,Water,1
 Node,424,WATER DISHWASHER OUTLET NODE_UNIT3_FRONTROW_TOPFLOOR,Water,1
 Node,425,WATER BATH INLET NODE_UNIT3_FRONTROW_TOPFLOOR,Water,1
 Node,426,WATER BATH OUTLET NODE_UNIT3_FRONTROW_TOPFLOOR,Water,1
 Node,427,MAINS MAKEUP PIPE INLET NODE_UNIT3_FRONTROW_TOPFLOOR,Water,1
 Node,428,MAINS MAKEUP NODE_UNIT3_FRONTROW_TOPFLOOR,Water,2
 Node,429,WATER HEATER USE INLET NODE_UNIT3_FRONTROW_TOPFLOOR,Water,2
 Node,430,WATER HEATER USE OUTLET NODE_UNIT3_FRONTROW_TOPFLOOR,Water,2
 Node,431,MAINS INLET NODE_UNIT1_BACKROW_TOPFLOOR,Water,2
 Node,432,MAINS PRESSURE OUTLET NODE_UNIT1_BACKROW_TOPFLOOR,Water,1
 Node,433,DHW SUPPLY OUTLET PIPE INLET NODE_UNIT1_BACKROW_TOPFLOOR,Water,1
 Node,434,DHW SUPPLY OUTLET NODE_UNIT1_BACKROW_TOPFLOOR,Water,4
 Node,435,DHW DEMAND INLET NODE_UNIT1_BACKROW_TOPFLOOR,Water,2
 Node,436,DHW DEMAND INLET PIPE OUTLET NODE_UNIT1_BACKROW_TOPFLOOR,Water,1
 Node,437,WATER SINK INLET NODE_UNIT1_BACKROW_TOPFLOOR,Water,1
 Node,438,WATER SINK OUTLET NODE_UNIT1_BACKROW_TOPFLOOR,Water,1
 Node,439,WATER SHOWER INLET NODE_UNIT1_BACKROW_TOPFLOOR,Water,1
 Node,440,WATER SHOWER OUTLET NODE_UNIT1_BACKROW_TOPFLOOR,Water,1
 Node,441,WATER CLOTHESWASHER INLET NODE_UNIT1_BACKROW_TOPFLOOR,Water,1
 Node,442,WATER CLOTHESWASHER OUTLET NODE_UNIT1_BACKROW_TOPFLOOR,Water,1
 Node,443,WATER DISHWASHER INLET NODE_UNIT1_BACKROW_TOPFLOOR,Water,1
 Node,444,WATER DISHWASHER OUTLET NODE_UNIT1_BACKROW_TOPFLOOR,Water,1
 Node,445,WATER BATH INLET NODE_UNIT1_BACKROW_TOPFLOOR,Water,1
 Node,446,WATER BATH OUTLET NODE_UNIT1_BACKROW_TOPFLOOR,Water,1
 Node,447,MAINS MAKEUP PIPE INLET NODE_UNIT1_BACKROW_TOPFLOOR,Water,1
 Node,448,MAINS MAKEUP NODE_UNIT1_BACKROW_TOPFLOOR,Water,2
 Node,449,WATER HEATER USE INLET NODE_UNIT1_BACKROW_TOPFLOOR,Water,2
 Node,450,WATER HEATER USE OUTLET NODE_UNIT1_BACKROW_TOPFLOOR,Water,2
 Node,451,MAINS INLET NODE_UNIT2_BACKROW_TOPFLOOR,Water,2
 Node,452,MAINS PRESSURE OUTLET NODE_UNIT2_BACKROW_TOPFLOOR,Water,1
 Node,453,DHW SUPPLY OUTLET PIPE INLET NODE_UNIT2_BACKROW_TOPFLOOR,Water,1
 Node,454,DHW SUPPLY OUTLET NODE_UNIT2_BACKROW_TOPFLOOR,Water,4
 Node,455,DHW DEMAND INLET NODE_UNIT2_BACKROW_TOPFLOOR,Water,2
 Node,456,DHW DEMAND INLET PIPE OUTLET NODE_UNIT2_BACKROW_TOPFLOOR,Water,1
 Node,457,WATER SINK INLET NODE_UNIT2_BACKROW_TOPFLOOR,Water,1
 Node,458,WATER SINK OUTLET NODE_UNIT2_BACKROW_TOPFLOOR,Water,1
 Node,459,WATER SHOWER INLET NODE_UNIT2_BACKROW_TOPFLOOR,Water,1
 Node,460,WATER SHOWER OUTLET NODE_UNIT2_BACKROW_TOPFLOOR,Water,1
 Node,461,WATER CLOTHESWASHER INLET NODE_UNIT2_BACKROW_TOPFLOOR,Water,1
 Node,462,WATER CLOTHESWASHER OUTLET NODE_UNIT2_BACKROW_TOPFLOOR,Water,1
 Node,463,WATER DISHWASHER INLET NODE_UNIT2_BACKROW_TOPFLOOR,Water,1
 Node,464,WATER DISHWASHER OUTLET NODE_UNIT2_BACKROW_TOPFLOOR,Water,1
 Node,465,WATER BATH INLET NODE_UNIT2_BACKROW_TOPFLOOR,Water,1
 Node,466,WATER BATH OUTLET NODE_UNIT2_BACKROW_TOPFLOOR,Water,1
 Node,467,MAINS MAKEUP PIPE INLET NODE_UNIT2_BACKROW_TOPFLOOR,Water,1
 Node,468,MAINS MAKEUP NODE_UNIT2_BACKROW_TOPFLOOR,Water,2
 Node,469,WATER HEATER USE INLET NODE_UNIT2_BACKROW_TOPFLOOR,Water,2
 Node,470,WATER HEATER USE OUTLET NODE_UNIT2_BACKROW_TOPFLOOR,Water,2
 Node,471,MAINS INLET NODE_UNIT3_BACKROW_TOPFLOOR,Water,2
 Node,472,MAINS PRESSURE OUTLET NODE_UNIT3_BACKROW_TOPFLOOR,Water,1
 Node,473,DHW SUPPLY OUTLET PIPE INLET NODE_UNIT3_BACKROW_TOPFLOOR,Water,1
 Node,474,DHW SUPPLY OUTLET NODE_UNIT3_BACKROW_TOPFLOOR,Water,4
 Node,475,DHW DEMAND INLET NODE_UNIT3_BACKROW_TOPFLOOR,Water,2
 Node,476,DHW DEMAND INLET PIPE OUTLET NODE_UNIT3_BACKROW_TOPFLOOR,Water,1
 Node,477,WATER SINK INLET NODE_UNIT3_BACKROW_TOPFLOOR,Water,1
 Node,478,WATER SINK OUTLET NODE_UNIT3_BACKROW_TOPFLOOR,Water,1
 Node,479,WATER SHOWER INLET NODE_UNIT3_BACKROW_TOPFLOOR,Water,1
 Node,480,WATER SHOWER OUTLET NODE_UNIT3_BACKROW_TOPFLOOR,Water,1
 Node,481,WATER CLOTHESWASHER INLET NODE_UNIT3_BACKROW_TOPFLOOR,Water,1
 Node,482,WATER CLOTHESWASHER OUTLET NODE_UNIT3_BACKROW_TOPFLOOR,Water,1
 Node,483,WATER DISHWASHER INLET NODE_UNIT3_BACKROW_TOPFLOOR,Water,1
 Node,484,WATER DISHWASHER OUTLET NODE_UNIT3_BACKROW_TOPFLOOR,Water,1
 Node,485,WATER BATH INLET NODE_UNIT3_BACKROW_TOPFLOOR,Water,1
 Node,486,WATER BATH OUTLET NODE_UNIT3_BACKROW_TOPFLOOR,Water,1
 Node,487,MAINS MAKEUP PIPE INLET NODE_UNIT3_BACKROW_TOPFLOOR,Water,1
 Node,488,MAINS MAKEUP NODE_UNIT3_BACKROW_TOPFLOOR,Water,2
 Node,489,WATER HEATER USE INLET NODE_UNIT3_BACKROW_TOPFLOOR,Water,2
 Node,490,WATER HEATER USE OUTLET NODE_UNIT3_BACKROW_TOPFLOOR,Water,2
 Node,491,ZONE NODE_UNIT1_FRONTROW_BOTTOMFLOOR,Air,0
 Node,492,ZONE OUTLET NODE_UNIT1_FRONTROW_BOTTOMFLOOR,Air,1
 Node,493,ZONE NODE_UNIT2_FRONTROW_BOTTOMFLOOR,Air,0
 Node,494,ZONE OUTLET NODE_UNIT2_FRONTROW_BOTTOMFLOOR,Air,1
 Node,495,ZONE NODE_UNIT3_FRONTROW_BOTTOMFLOOR,Air,0
 Node,496,ZONE OUTLET NODE_UNIT3_FRONTROW_BOTTOMFLOOR,Air,1
 Node,497,ZONE NODE_UNIT1_BACKROW_BOTTOMFLOOR,Air,0
 Node,498,ZONE OUTLET NODE_UNIT1_BACKROW_BOTTOMFLOOR,Air,1
 Node,499,ZONE NODE_UNIT2_BACKROW_BOTTOMFLOOR,Air,0
 Node,500,ZONE OUTLET NODE_UNIT2_BACKROW_BOTTOMFLOOR,Air,1
 Node,501,ZONE NODE_UNIT3_BACKROW_BOTTOMFLOOR,Air,0
 Node,502,ZONE OUTLET NODE_UNIT3_BACKROW_BOTTOMFLOOR,Air,1
 Node,503,ZONE NODE_UNIT1_FRONTROW_MIDDLEFLOOR,Air,0
 Node,504,ZONE OUTLET NODE_UNIT1_FRONTROW_MIDDLEFLOOR,Air,1
 Node,505,ZONE NODE_UNIT2_FRONTROW_MIDDLEFLOOR,Air,0
 Node,506,ZONE OUTLET NODE_UNIT2_FRONTROW_MIDDLEFLOOR,Air,1
 Node,507,ZONE NODE_UNIT3_FRONTROW_MIDDLEFLOOR,Air,0
 Node,508,ZONE OUTLET NODE_UNIT3_FRONTROW_MIDDLEFLOOR,Air,1
 Node,509,ZONE NODE_UNIT1_BACKROW_MIDDLEFLOOR,Air,0
 Node,510,ZONE OUTLET NODE_UNIT1_BACKROW_MIDDLEFLOOR,Air,1
 Node,511,ZONE NODE_UNIT2_BACKROW_MIDDLEFLOOR,Air,0
 Node,512,ZONE OUTLET NODE_UNIT2_BACKROW_MIDDLEFLOOR,Air,1
 Node,513,ZONE NODE_UNIT3_BACKROW_MIDDLEFLOOR,Air,0
 Node,514,ZONE OUTLET NODE_UNIT3_BACKROW_MIDDLEFLOOR,Air,1
 Node,515,ZONE NODE_UNIT1_FRONTROW_TOPFLOOR,Air,0
 Node,516,ZONE OUTLET NODE_UNIT1_FRONTROW_TOPFLOOR,Air,1
 Node,517,ZONE NODE_UNIT2_FRONTROW_TOPFLOOR,Air,0
 Node,518,ZONE OUTLET NODE_UNIT2_FRONTROW_TOPFLOOR,Air,1
 Node,519,ZONE NODE_UNIT3_FRONTROW_TOPFLOOR,Air,0
 Node,520,ZONE OUTLET NODE_UNIT3_FRONTROW_TOPFLOOR,Air,1
 Node,521,ZONE NODE_UNIT1_BACKROW_TOPFLOOR,Air,0
 Node,522,ZONE OUTLET NODE_UNIT1_BACKROW_TOPFLOOR,Air,1
 Node,523,ZONE NODE_UNIT2_BACKROW_TOPFLOOR,Air,0
 Node,524,ZONE OUTLET NODE_UNIT2_BACKROW_TOPFLOOR,Air,1
 Node,525,ZONE NODE_UNIT3_BACKROW_TOPFLOOR,Air,0
 Node,526,ZONE OUTLET NODE_UNIT3_BACKROW_TOPFLOOR,Air,1
 Node,527,ZONE NODE_UNITHEATEDBSMT,Air,0
 Node,528,ZONE EXHAUST NODE_UNITHEATEDBSMT,Air,2
 Node,529,ZONE OUTLET NODE_UNITHEATEDBSMT,Air,1
 Node,530,ZONE EQUIPMENT INLET NODE_UNIT1_FRONTROW_BOTTOMFLOOR,Air,2
 Node,531,ZONE EQUIPMENT INLET NODE_UNIT2_FRONTROW_BOTTOMFLOOR,Air,2
 Node,532,ZONE EQUIPMENT INLET NODE_UNIT3_FRONTROW_BOTTOMFLOOR,Air,2
 Node,533,ZONE EQUIPMENT INLET NODE_UNIT1_BACKROW_BOTTOMFLOOR,Air,2
 Node,534,ZONE EQUIPMENT INLET NODE_UNIT2_BACKROW_BOTTOMFLOOR,Air,2
 Node,535,ZONE EQUIPMENT INLET NODE_UNIT3_BACKROW_BOTTOMFLOOR,Air,2
 Node,536,ZONE EQUIPMENT INLET NODE_UNIT1_FRONTROW_MIDDLEFLOOR,Air,2
 Node,537,ZONE EQUIPMENT INLET NODE_UNIT2_FRONTROW_MIDDLEFLOOR,Air,2
 Node,538,ZONE EQUIPMENT INLET NODE_UNIT3_FRONTROW_MIDDLEFLOOR,Air,2
 Node,539,ZONE EQUIPMENT INLET NODE_UNIT1_BACKROW_MIDDLEFLOOR,Air,2
 Node,540,ZONE EQUIPMENT INLET NODE_UNIT2_BACKROW_MIDDLEFLOOR,Air,2
 Node,541,ZONE EQUIPMENT INLET NODE_UNIT3_BACKROW_MIDDLEFLOOR,Air,2
 Node,542,ZONE EQUIPMENT INLET NODE_UNIT1_FRONTROW_TOPFLOOR,Air,2
 Node,543,ZONE EQUIPMENT INLET NODE_UNIT2_FRONTROW_TOPFLOOR,Air,2
 Node,544,ZONE EQUIPMENT INLET NODE_UNIT3_FRONTROW_TOPFLOOR,Air,2
 Node,545,ZONE EQUIPMENT INLET NODE_UNIT1_BACKROW_TOPFLOOR,Air,2
 Node,546,ZONE EQUIPMENT INLET NODE_UNIT2_BACKROW_TOPFLOOR,Air,2
 Node,547,ZONE EQUIPMENT INLET NODE_UNIT3_BACKROW_TOPFLOOR,Air,2
 Node,548,ZONE EQUIPMENT INLET NODE_UNITHEATEDBSMT,Air,2
 Node,549,RETURN AIR MIXER OUTLET_UNIT1_FRONTROW_BOTTOMFLOOR,Air,2
 Node,550,RETURN AIR MIXER OUTLET_UNIT2_FRONTROW_BOTTOMFLOOR,Air,2
 Node,551,RETURN AIR MIXER OUTLET_UNIT3_FRONTROW_BOTTOMFLOOR,Air,2
 Node,552,RETURN AIR MIXER OUTLET_UNIT1_BACKROW_BOTTOMFLOOR,Air,2
 Node,553,RETURN AIR MIXER OUTLET_UNIT2_BACKROW_BOTTOMFLOOR,Air,2
 Node,554,RETURN AIR MIXER OUTLET_UNIT3_BACKROW_BOTTOMFLOOR,Air,2
 Node,555,RETURN AIR MIXER OUTLET_UNIT1_FRONTROW_MIDDLEFLOOR,Air,2
 Node,556,RETURN AIR MIXER OUTLET_UNIT2_FRONTROW_MIDDLEFLOOR,Air,2
 Node,557,RETURN AIR MIXER OUTLET_UNIT3_FRONTROW_MIDDLEFLOOR,Air,2
 Node,558,RETURN AIR MIXER OUTLET_UNIT1_BACKROW_MIDDLEFLOOR,Air,2
 Node,559,RETURN AIR MIXER OUTLET_UNIT2_BACKROW_MIDDLEFLOOR,Air,2
 Node,560,RETURN AIR MIXER OUTLET_UNIT3_BACKROW_MIDDLEFLOOR,Air,2
 Node,561,RETURN AIR MIXER OUTLET_UNIT1_FRONTROW_TOPFLOOR,Air,2
 Node,562,RETURN AIR MIXER OUTLET_UNIT2_FRONTROW_TOPFLOOR,Air,2
 Node,563,RETURN AIR MIXER OUTLET_UNIT3_FRONTROW_TOPFLOOR,Air,2
 Node,564,RETURN AIR MIXER OUTLET_UNIT1_BACKROW_TOPFLOOR,Air,2
 Node,565,RETURN AIR MIXER OUTLET_UNIT2_BACKROW_TOPFLOOR,Air,2
 Node,566,RETURN AIR MIXER OUTLET_UNIT3_BACKROW_TOPFLOOR,Air,2
 Node,567,RETURN AIR MIXER OUTLET_UNITHEATEDBSMT,Air,2
 Node,568,COOLING COIL AIR INLET NODE_UNIT1_FRONTROW_BOTTOMFLOOR,Air,1
 Node,569,HEATING COIL AIR INLET NODE_UNIT1_FRONTROW_BOTTOMFLOOR,Air,1
 Node,570,COOLING COIL AIR INLET NODE_UNIT2_FRONTROW_BOTTOMFLOOR,Air,1
 Node,571,HEATING COIL AIR INLET NODE_UNIT2_FRONTROW_BOTTOMFLOOR,Air,1
 Node,572,COOLING COIL AIR INLET NODE_UNIT3_FRONTROW_BOTTOMFLOOR,Air,1
 Node,573,HEATING COIL AIR INLET NODE_UNIT3_FRONTROW_BOTTOMFLOOR,Air,1
 Node,574,COOLING COIL AIR INLET NODE_UNIT1_BACKROW_BOTTOMFLOOR,Air,1
 Node,575,HEATING COIL AIR INLET NODE_UNIT1_BACKROW_BOTTOMFLOOR,Air,1
 Node,576,COOLING COIL AIR INLET NODE_UNIT2_BACKROW_BOTTOMFLOOR,Air,1
 Node,577,HEATING COIL AIR INLET NODE_UNIT2_BACKROW_BOTTOMFLOOR,Air,1
 Node,578,COOLING COIL AIR INLET NODE_UNIT3_BACKROW_BOTTOMFLOOR,Air,1
 Node,579,HEATING COIL AIR INLET NODE_UNIT3_BACKROW_BOTTOMFLOOR,Air,1
 Node,580,COOLING COIL AIR INLET NODE_UNIT1_FRONTROW_MIDDLEFLOOR,Air,1
 Node,581,HEATING COIL AIR INLET NODE_UNIT1_FRONTROW_MIDDLEFLOOR,Air,1
 Node,582,COOLING COIL AIR INLET NODE_UNIT2_FRONTROW_MIDDLEFLOOR,Air,1
 Node,583,HEATING COIL AIR INLET NODE_UNIT2_FRONTROW_MIDDLEFLOOR,Air,1
 Node,584,COOLING COIL AIR INLET NODE_UNIT3_FRONTROW_MIDDLEFLOOR,Air,1
 Node,585,HEATING COIL AIR INLET NODE_UNIT3_FRONTROW_MIDDLEFLOOR,Air,1
 Node,586,COOLING COIL AIR INLET NODE_UNIT1_BACKROW_MIDDLEFLOOR,Air,1
 Node,587,HEATING COIL AIR INLET NODE_UNIT1_BACKROW_MIDDLEFLOOR,Air,1
 Node,588,COOLING COIL AIR INLET NODE_UNIT2_BACKROW_MIDDLEFLOOR,Air,1
 Node,589,HEATING COIL AIR INLET NODE_UNIT2_BACKROW_MIDDLEFLOOR,Air,1
 Node,590,COOLING COIL AIR INLET NODE_UNIT3_BACKROW_MIDDLEFLOOR,Air,1
 Node,591,HEATING COIL AIR INLET NODE_UNIT3_BACKROW_MIDDLEFLOOR,Air,1
 Node,592,COOLING COIL AIR INLET NODE_UNIT1_FRONTROW_TOPFLOOR,Air,1
 Node,593,HEATING COIL AIR INLET NODE_UNIT1_FRONTROW_TOPFLOOR,Air,1
 Node,594,COOLING COIL AIR INLET NODE_UNIT2_FRONTROW_TOPFLOOR,Air,1
 Node,595,HEATING COIL AIR INLET NODE_UNIT2_FRONTROW_TOPFLOOR,Air,1
 Node,596,COOLING COIL AIR INLET NODE_UNIT3_FRONTROW_TOPFLOOR,Air,1
 Node,597,HEATING COIL AIR INLET NODE_UNIT3_FRONTROW_TOPFLOOR,Air,1
 Node,598,COOLING COIL AIR INLET NODE_UNIT1_BACKROW_TOPFLOOR,Air,1
 Node,599,HEATING COIL AIR INLET NODE_UNIT1_BACKROW_TOPFLOOR,Air,1
 Node,600,COOLING COIL AIR INLET NODE_UNIT2_BACKROW_TOPFLOOR,Air,1
 Node,601,HEATING COIL AIR INLET NODE_UNIT2_BACKROW_TOPFLOOR,Air,1
 Node,602,COOLING COIL AIR INLET NODE_UNIT3_BACKROW_TOPFLOOR,Air,1
 Node,603,HEATING COIL AIR INLET NODE_UNIT3_BACKROW_TOPFLOOR,Air,1
 Node,604,COOLING COIL AIR INLET NODE_UNITHEATEDBSMT,Air,1
 Node,605,HEATING COIL AIR INLET NODE_UNITHEATEDBSMT,Air,1
 Node,606,SUPP HEATING COIL AIR INLET NODE_UNIT1_FRONTROW_BOTTOMFLOOR,Air,1
 Node,607,SUPP HEATING COIL AIR INLET NODE_UNIT2_FRONTROW_BOTTOMFLOOR,Air,1
 Node,608,SUPP HEATING COIL AIR INLET NODE_UNIT3_FRONTROW_BOTTOMFLOOR,Air,1
 Node,609,SUPP HEATING COIL AIR INLET NODE_UNIT1_BACKROW_BOTTOMFLOOR,Air,1
 Node,610,SUPP HEATING COIL AIR INLET NODE_UNIT2_BACKROW_BOTTOMFLOOR,Air,1
 Node,611,SUPP HEATING COIL AIR INLET NODE_UNIT3_BACKROW_BOTTOMFLOOR,Air,1
 Node,612,SUPP HEATING COIL AIR INLET NODE_UNIT1_FRONTROW_MIDDLEFLOOR,Air,1
 Node,613,SUPP HEATING COIL AIR INLET NODE_UNIT2_FRONTROW_MIDDLEFLOOR,Air,1
 Node,614,SUPP HEATING COIL AIR INLET NODE_UNIT3_FRONTROW_MIDDLEFLOOR,Air,1
 Node,615,SUPP HEATING COIL AIR INLET NODE_UNIT1_BACKROW_MIDDLEFLOOR,Air,1
 Node,616,SUPP HEATING COIL AIR INLET NODE_UNIT2_BACKROW_MIDDLEFLOOR,Air,1
 Node,617,SUPP HEATING COIL AIR INLET NODE_UNIT3_BACKROW_MIDDLEFLOOR,Air,1
 Node,618,SUPP HEATING COIL AIR INLET NODE_UNIT1_FRONTROW_TOPFLOOR,Air,1
 Node,619,SUPP HEATING COIL AIR INLET NODE_UNIT2_FRONTROW_TOPFLOOR,Air,1
 Node,620,SUPP HEATING COIL AIR INLET NODE_UNIT3_FRONTROW_TOPFLOOR,Air,1
 Node,621,SUPP HEATING COIL AIR INLET NODE_UNIT1_BACKROW_TOPFLOOR,Air,1
 Node,622,SUPP HEATING COIL AIR INLET NODE_UNIT2_BACKROW_TOPFLOOR,Air,1
 Node,623,SUPP HEATING COIL AIR INLET NODE_UNIT3_BACKROW_TOPFLOOR,Air,1
 Node,624,SUPP HEATING COIL AIR INLET NODE_UNITHEATEDBSMT,Air,1
 Node,625,HEAT PUMP WATER HEATER FAN INLET NODE_UNIT1_FRONTROW_BOTTOMFLOOR,Air,1
 Node,626,OUTDOOR AIR NODE_UNIT1_FRONTROW_BOTTOMFLOOR,Air,2
 Node,627,OUTDOOR AIR NODE_UNIT2_FRONTROW_BOTTOMFLOOR,Air,2
 Node,628,OUTDOOR AIR NODE_UNIT3_FRONTROW_BOTTOMFLOOR,Air,2
 Node,629,OUTDOOR AIR NODE_UNIT1_BACKROW_BOTTOMFLOOR,Air,2
 Node,630,OUTDOOR AIR NODE_UNIT2_BACKROW_BOTTOMFLOOR,Air,2
 Node,631,OUTDOOR AIR NODE_UNIT3_BACKROW_BOTTOMFLOOR,Air,2
 Node,632,OUTDOOR AIR NODE_UNIT1_FRONTROW_MIDDLEFLOOR,Air,2
 Node,633,OUTDOOR AIR NODE_UNIT2_FRONTROW_MIDDLEFLOOR,Air,2
 Node,634,OUTDOOR AIR NODE_UNIT3_FRONTROW_MIDDLEFLOOR,Air,2
 Node,635,OUTDOOR AIR NODE_UNIT1_BACKROW_MIDDLEFLOOR,Air,2
 Node,636,OUTDOOR AIR NODE_UNIT2_BACKROW_MIDDLEFLOOR,Air,2
 Node,637,OUTDOOR AIR NODE_UNIT3_BACKROW_MIDDLEFLOOR,Air,2
 Node,638,OUTDOOR AIR NODE_UNIT1_FRONTROW_TOPFLOOR,Air,2
 Node,639,OUTDOOR AIR NODE_UNIT2_FRONTROW_TOPFLOOR,Air,2
 Node,640,OUTDOOR AIR NODE_UNIT3_FRONTROW_TOPFLOOR,Air,2
 Node,641,OUTDOOR AIR NODE_UNIT1_BACKROW_TOPFLOOR,Air,2
 Node,642,OUTDOOR AIR NODE_UNIT2_BACKROW_TOPFLOOR,Air,2
 Node,643,OUTDOOR AIR NODE_UNIT3_BACKROW_TOPFLOOR,Air,2
 Node,644,OUTDOOR AIR NODE_UNITHEATEDBSMT,Air,2
 Node,645,OUTSIDE AIR INLET NODE_UNIT1_FRONTROW_BOTTOMFLOOR,Air,0
 Node,646,OUTSIDE AIR INLET NODE_UNIT2_FRONTROW_BOTTOMFLOOR,Air,0
 Node,647,OUTSIDE AIR INLET NODE_UNIT3_FRONTROW_BOTTOMFLOOR,Air,0
 Node,648,OUTSIDE AIR INLET NODE_UNIT1_BACKROW_BOTTOMFLOOR,Air,0
 Node,649,OUTSIDE AIR INLET NODE_UNIT2_BACKROW_BOTTOMFLOOR,Air,0
 Node,650,OUTSIDE AIR INLET NODE_UNIT3_BACKROW_BOTTOMFLOOR,Air,0
 Node,651,OUTSIDE AIR INLET NODE_UNIT1_FRONTROW_MIDDLEFLOOR,Air,0
 Node,652,OUTSIDE AIR INLET NODE_UNIT2_FRONTROW_MIDDLEFLOOR,Air,0
 Node,653,OUTSIDE AIR INLET NODE_UNIT3_FRONTROW_MIDDLEFLOOR,Air,0
 Node,654,OUTSIDE AIR INLET NODE_UNIT1_BACKROW_MIDDLEFLOOR,Air,0
 Node,655,OUTSIDE AIR INLET NODE_UNIT2_BACKROW_MIDDLEFLOOR,Air,0
 Node,656,OUTSIDE AIR INLET NODE_UNIT3_BACKROW_MIDDLEFLOOR,Air,0
 Node,657,OUTSIDE AIR INLET NODE_UNIT1_FRONTROW_TOPFLOOR,Air,0
 Node,658,OUTSIDE AIR INLET NODE_UNIT2_FRONTROW_TOPFLOOR,Air,0
 Node,659,OUTSIDE AIR INLET NODE_UNIT3_FRONTROW_TOPFLOOR,Air,0
 Node,660,OUTSIDE AIR INLET NODE_UNIT1_BACKROW_TOPFLOOR,Air,0
 Node,661,OUTSIDE AIR INLET NODE_UNIT2_BACKROW_TOPFLOOR,Air,0
 Node,662,OUTSIDE AIR INLET NODE_UNIT3_BACKROW_TOPFLOOR,Air,0
 Node,663,OUTSIDE AIR INLET NODE_UNITHEATEDBSMT,Air,0
 Node,664,DUMMY CONDENSER INLET HEAT PUMP WATER HEATER EVAPORATOR_UNIT1_FRONTROW_BOTTOMFLOOR,Water,2
 Node,665,DUMMY CONDENSER OUTLET HEAT PUMP WATER HEATER EVAPORATOR_UNIT1_FRONTROW_BOTTOMFLOOR,Water,2
 Node,666,HEAT PUMP WATER HEATER FAN INLET NODE_UNIT2_FRONTROW_BOTTOMFLOOR,Air,1
 Node,667,DUMMY CONDENSER INLET HEAT PUMP WATER HEATER EVAPORATOR_UNIT2_FRONTROW_BOTTOMFLOOR,Water,2
 Node,668,DUMMY CONDENSER OUTLET HEAT PUMP WATER HEATER EVAPORATOR_UNIT2_FRONTROW_BOTTOMFLOOR,Water,2
 Node,669,HEAT PUMP WATER HEATER FAN INLET NODE_UNIT3_FRONTROW_BOTTOMFLOOR,Air,1
 Node,670,DUMMY CONDENSER INLET HEAT PUMP WATER HEATER EVAPORATOR_UNIT3_FRONTROW_BOTTOMFLOOR,Water,2
 Node,671,DUMMY CONDENSER OUTLET HEAT PUMP WATER HEATER EVAPORATOR_UNIT3_FRONTROW_BOTTOMFLOOR,Water,2
 Node,672,HEAT PUMP WATER HEATER FAN INLET NODE_UNIT1_BACKROW_BOTTOMFLOOR,Air,1
 Node,673,DUMMY CONDENSER INLET HEAT PUMP WATER HEATER EVAPORATOR_UNIT1_BACKROW_BOTTOMFLOOR,Water,2
 Node,674,DUMMY CONDENSER OUTLET HEAT PUMP WATER HEATER EVAPORATOR_UNIT1_BACKROW_BOTTOMFLOOR,Water,2
 Node,675,HEAT PUMP WATER HEATER FAN INLET NODE_UNIT2_BACKROW_BOTTOMFLOOR,Air,1
 Node,676,DUMMY CONDENSER INLET HEAT PUMP WATER HEATER EVAPORATOR_UNIT2_BACKROW_BOTTOMFLOOR,Water,2
 Node,677,DUMMY CONDENSER OUTLET HEAT PUMP WATER HEATER EVAPORATOR_UNIT2_BACKROW_BOTTOMFLOOR,Water,2
 Node,678,HEAT PUMP WATER HEATER FAN INLET NODE_UNIT3_BACKROW_BOTTOMFLOOR,Air,1
 Node,679,DUMMY CONDENSER INLET HEAT PUMP WATER HEATER EVAPORATOR_UNIT3_BACKROW_BOTTOMFLOOR,Water,2
 Node,680,DUMMY CONDENSER OUTLET HEAT PUMP WATER HEATER EVAPORATOR_UNIT3_BACKROW_BOTTOMFLOOR,Water,2
 Node,681,HEAT PUMP WATER HEATER FAN INLET NODE_UNIT1_FRONTROW_MIDDLEFLOOR,Air,1
 Node,682,DUMMY CONDENSER INLET HEAT PUMP WATER HEATER EVAPORATOR_UNIT1_FRONTROW_MIDDLEFLOOR,Water,2
 Node,683,DUMMY CONDENSER OUTLET HEAT PUMP WATER HEATER EVAPORATOR_UNIT1_FRONTROW_MIDDLEFLOOR,Water,2
 Node,684,HEAT PUMP WATER HEATER FAN INLET NODE_UNIT2_FRONTROW_MIDDLEFLOOR,Air,1
 Node,685,DUMMY CONDENSER INLET HEAT PUMP WATER HEATER EVAPORATOR_UNIT2_FRONTROW_MIDDLEFLOOR,Water,2
 Node,686,DUMMY CONDENSER OUTLET HEAT PUMP WATER HEATER EVAPORATOR_UNIT2_FRONTROW_MIDDLEFLOOR,Water,2
 Node,687,HEAT PUMP WATER HEATER FAN INLET NODE_UNIT3_FRONTROW_MIDDLEFLOOR,Air,1
 Node,688,DUMMY CONDENSER INLET HEAT PUMP WATER HEATER EVAPORATOR_UNIT3_FRONTROW_MIDDLEFLOOR,Water,2
 Node,689,DUMMY CONDENSER OUTLET HEAT PUMP WATER HEATER EVAPORATOR_UNIT3_FRONTROW_MIDDLEFLOOR,Water,2
 Node,690,HEAT PUMP WATER HEATER FAN INLET NODE_UNIT1_BACKROW_MIDDLEFLOOR,Air,1
 Node,691,DUMMY CONDENSER INLET HEAT PUMP WATER HEATER EVAPORATOR_UNIT1_BACKROW_MIDDLEFLOOR,Water,2
 Node,692,DUMMY CONDENSER OUTLET HEAT PUMP WATER HEATER EVAPORATOR_UNIT1_BACKROW_MIDDLEFLOOR,Water,2
 Node,693,HEAT PUMP WATER HEATER FAN INLET NODE_UNIT2_BACKROW_MIDDLEFLOOR,Air,1
 Node,694,DUMMY CONDENSER INLET HEAT PUMP WATER HEATER EVAPORATOR_UNIT2_BACKROW_MIDDLEFLOOR,Water,2
 Node,695,DUMMY CONDENSER OUTLET HEAT PUMP WATER HEATER EVAPORATOR_UNIT2_BACKROW_MIDDLEFLOOR,Water,2
 Node,696,HEAT PUMP WATER HEATER FAN INLET NODE_UNIT3_BACKROW_MIDDLEFLOOR,Air,1
 Node,697,DUMMY CONDENSER INLET HEAT PUMP WATER HEATER EVAPORATOR_UNIT3_BACKROW_MIDDLEFLOOR,Water,2
 Node,698,DUMMY CONDENSER OUTLET HEAT PUMP WATER HEATER EVAPORATOR_UNIT3_BACKROW_MIDDLEFLOOR,Water,2
 Node,699,HEAT PUMP WATER HEATER FAN INLET NODE_UNIT1_FRONTROW_TOPFLOOR,Air,1
 Node,700,DUMMY CONDENSER INLET HEAT PUMP WATER HEATER EVAPORATOR_UNIT1_FRONTROW_TOPFLOOR,Water,2
 Node,701,DUMMY CONDENSER OUTLET HEAT PUMP WATER HEATER EVAPORATOR_UNIT1_FRONTROW_TOPFLOOR,Water,2
 Node,702,HEAT PUMP WATER HEATER FAN INLET NODE_UNIT2_FRONTROW_TOPFLOOR,Air,1
 Node,703,DUMMY CONDENSER INLET HEAT PUMP WATER HEATER EVAPORATOR_UNIT2_FRONTROW_TOPFLOOR,Water,2
 Node,704,DUMMY CONDENSER OUTLET HEAT PUMP WATER HEATER EVAPORATOR_UNIT2_FRONTROW_TOPFLOOR,Water,2
 Node,705,HEAT PUMP WATER HEATER FAN INLET NODE_UNIT3_FRONTROW_TOPFLOOR,Air,1
 Node,706,DUMMY CONDENSER INLET HEAT PUMP WATER HEATER EVAPORATOR_UNIT3_FRONTROW_TOPFLOOR,Water,2
 Node,707,DUMMY CONDENSER OUTLET HEAT PUMP WATER HEATER EVAPORATOR_UNIT3_FRONTROW_TOPFLOOR,Water,2
 Node,708,HEAT PUMP WATER HEATER FAN INLET NODE_UNIT1_BACKROW_TOPFLOOR,Air,1
 Node,709,DUMMY CONDENSER INLET HEAT PUMP WATER HEATER EVAPORATOR_UNIT1_BACKROW_TOPFLOOR,Water,2
 Node,710,DUMMY CONDENSER OUTLET HEAT PUMP WATER HEATER EVAPORATOR_UNIT1_BACKROW_TOPFLOOR,Water,2
 Node,711,HEAT PUMP WATER HEATER FAN INLET NODE_UNIT2_BACKROW_TOPFLOOR,Air,1
 Node,712,DUMMY CONDENSER INLET HEAT PUMP WATER HEATER EVAPORATOR_UNIT2_BACKROW_TOPFLOOR,Water,2
 Node,713,DUMMY CONDENSER OUTLET HEAT PUMP WATER HEATER EVAPORATOR_UNIT2_BACKROW_TOPFLOOR,Water,2
 Node,714,HEAT PUMP WATER HEATER FAN INLET NODE_UNIT3_BACKROW_TOPFLOOR,Air,1
 Node,715,DUMMY CONDENSER INLET HEAT PUMP WATER HEATER EVAPORATOR_UNIT3_BACKROW_TOPFLOOR,Water,2
 Node,716,DUMMY CONDENSER OUTLET HEAT PUMP WATER HEATER EVAPORATOR_UNIT3_BACKROW_TOPFLOOR,Water,2
 Node,717,OA FAN INLET NODE_UNIT1_FRONTROW_BOTTOMFLOOR,Air,1
 Node,718,ERVEXHAUSTNODE_UNIT1_FRONTROW_BOTTOMFLOOR,Air,1
 Node,719,EXHAUST OUTLET NODE_UNIT1_FRONTROW_BOTTOMFLOOR,Air,1
 Node,720,OA FAN INLET NODE_UNIT2_FRONTROW_BOTTOMFLOOR,Air,1
 Node,721,ERVEXHAUSTNODE_UNIT2_FRONTROW_BOTTOMFLOOR,Air,1
 Node,722,EXHAUST OUTLET NODE_UNIT2_FRONTROW_BOTTOMFLOOR,Air,1
 Node,723,OA FAN INLET NODE_UNIT3_FRONTROW_BOTTOMFLOOR,Air,1
 Node,724,ERVEXHAUSTNODE_UNIT3_FRONTROW_BOTTOMFLOOR,Air,1
 Node,725,EXHAUST OUTLET NODE_UNIT3_FRONTROW_BOTTOMFLOOR,Air,1
 Node,726,OA FAN INLET NODE_UNIT1_BACKROW_BOTTOMFLOOR,Air,1
 Node,727,ERVEXHAUSTNODE_UNIT1_BACKROW_BOTTOMFLOOR,Air,1
 Node,728,EXHAUST OUTLET NODE_UNIT1_BACKROW_BOTTOMFLOOR,Air,1
 Node,729,OA FAN INLET NODE_UNIT2_BACKROW_BOTTOMFLOOR,Air,1
 Node,730,ERVEXHAUSTNODE_UNIT2_BACKROW_BOTTOMFLOOR,Air,1
 Node,731,EXHAUST OUTLET NODE_UNIT2_BACKROW_BOTTOMFLOOR,Air,1
 Node,732,OA FAN INLET NODE_UNIT3_BACKROW_BOTTOMFLOOR,Air,1
 Node,733,ERVEXHAUSTNODE_UNIT3_BACKROW_BOTTOMFLOOR,Air,1
 Node,734,EXHAUST OUTLET NODE_UNIT3_BACKROW_BOTTOMFLOOR,Air,1
 Node,735,OA FAN INLET NODE_UNIT1_FRONTROW_MIDDLEFLOOR,Air,1
 Node,736,ERVEXHAUSTNODE_UNIT1_FRONTROW_MIDDLEFLOOR,Air,1
 Node,737,EXHAUST OUTLET NODE_UNIT1_FRONTROW_MIDDLEFLOOR,Air,1
 Node,738,OA FAN INLET NODE_UNIT2_FRONTROW_MIDDLEFLOOR,Air,1
 Node,739,ERVEXHAUSTNODE_UNIT2_FRONTROW_MIDDLEFLOOR,Air,1
 Node,740,EXHAUST OUTLET NODE_UNIT2_FRONTROW_MIDDLEFLOOR,Air,1
 Node,741,OA FAN INLET NODE_UNIT3_FRONTROW_MIDDLEFLOOR,Air,1
 Node,742,ERVEXHAUSTNODE_UNIT3_FRONTROW_MIDDLEFLOOR,Air,1
 Node,743,EXHAUST OUTLET NODE_UNIT3_FRONTROW_MIDDLEFLOOR,Air,1
 Node,744,OA FAN INLET NODE_UNIT1_BACKROW_MIDDLEFLOOR,Air,1
 Node,745,ERVEXHAUSTNODE_UNIT1_BACKROW_MIDDLEFLOOR,Air,1
 Node,746,EXHAUST OUTLET NODE_UNIT1_BACKROW_MIDDLEFLOOR,Air,1
 Node,747,OA FAN INLET NODE_UNIT2_BACKROW_MIDDLEFLOOR,Air,1
 Node,748,ERVEXHAUSTNODE_UNIT2_BACKROW_MIDDLEFLOOR,Air,1
 Node,749,EXHAUST OUTLET NODE_UNIT2_BACKROW_MIDDLEFLOOR,Air,1
 Node,750,OA FAN INLET NODE_UNIT3_BACKROW_MIDDLEFLOOR,Air,1
 Node,751,ERVEXHAUSTNODE_UNIT3_BACKROW_MIDDLEFLOOR,Air,1
 Node,752,EXHAUST OUTLET NODE_UNIT3_BACKROW_MIDDLEFLOOR,Air,1
 Node,753,OA FAN INLET NODE_UNIT1_FRONTROW_TOPFLOOR,Air,1
 Node,754,ERVEXHAUSTNODE_UNIT1_FRONTROW_TOPFLOOR,Air,1
 Node,755,EXHAUST OUTLET NODE_UNIT1_FRONTROW_TOPFLOOR,Air,1
 Node,756,OA FAN INLET NODE_UNIT2_FRONTROW_TOPFLOOR,Air,1
 Node,757,ERVEXHAUSTNODE_UNIT2_FRONTROW_TOPFLOOR,Air,1
 Node,758,EXHAUST OUTLET NODE_UNIT2_FRONTROW_TOPFLOOR,Air,1
 Node,759,OA FAN INLET NODE_UNIT3_FRONTROW_TOPFLOOR,Air,1
 Node,760,ERVEXHAUSTNODE_UNIT3_FRONTROW_TOPFLOOR,Air,1
 Node,761,EXHAUST OUTLET NODE_UNIT3_FRONTROW_TOPFLOOR,Air,1
 Node,762,OA FAN INLET NODE_UNIT1_BACKROW_TOPFLOOR,Air,1
 Node,763,ERVEXHAUSTNODE_UNIT1_BACKROW_TOPFLOOR,Air,1
 Node,764,EXHAUST OUTLET NODE_UNIT1_BACKROW_TOPFLOOR,Air,1
 Node,765,OA FAN INLET NODE_UNIT2_BACKROW_TOPFLOOR,Air,1
 Node,766,ERVEXHAUSTNODE_UNIT2_BACKROW_TOPFLOOR,Air,1
 Node,767,EXHAUST OUTLET NODE_UNIT2_BACKROW_TOPFLOOR,Air,1
 Node,768,OA FAN INLET NODE_UNIT3_BACKROW_TOPFLOOR,Air,1
 Node,769,ERVEXHAUSTNODE_UNIT3_BACKROW_TOPFLOOR,Air,1
 Node,770,EXHAUST OUTLET NODE_UNIT3_BACKROW_TOPFLOOR,Air,1
 Node,771,OA FAN INLET NODE_UNITHEATEDBSMT,Air,1
 Node,772,ERVEXHAUSTNODE_UNITHEATEDBSMT,Air,1
 Node,773,EXHAUST OUTLET NODE_UNITHEATEDBSMT,Air,1
 Node,774,ZONE INLET NODE_UNIT1_FRONTROW_BOTTOMFLOOR ATINLET,Air,1
 Node,775,ZONE INLET NODE_UNIT2_FRONTROW_BOTTOMFLOOR ATINLET,Air,1
 Node,776,ZONE INLET NODE_UNIT3_FRONTROW_BOTTOMFLOOR ATINLET,Air,1
 Node,777,ZONE INLET NODE_UNIT1_BACKROW_BOTTOMFLOOR ATINLET,Air,1
 Node,778,ZONE INLET NODE_UNIT2_BACKROW_BOTTOMFLOOR ATINLET,Air,1
 Node,779,ZONE INLET NODE_UNIT3_BACKROW_BOTTOMFLOOR ATINLET,Air,1
 Node,780,ZONE INLET NODE_UNIT1_FRONTROW_MIDDLEFLOOR ATINLET,Air,1
 Node,781,ZONE INLET NODE_UNIT2_FRONTROW_MIDDLEFLOOR ATINLET,Air,1
 Node,782,ZONE INLET NODE_UNIT3_FRONTROW_MIDDLEFLOOR ATINLET,Air,1
 Node,783,ZONE INLET NODE_UNIT1_BACKROW_MIDDLEFLOOR ATINLET,Air,1
 Node,784,ZONE INLET NODE_UNIT2_BACKROW_MIDDLEFLOOR ATINLET,Air,1
 Node,785,ZONE INLET NODE_UNIT3_BACKROW_MIDDLEFLOOR ATINLET,Air,1
 Node,786,ZONE INLET NODE_UNIT1_FRONTROW_TOPFLOOR ATINLET,Air,1
 Node,787,ZONE INLET NODE_UNIT2_FRONTROW_TOPFLOOR ATINLET,Air,1
 Node,788,ZONE INLET NODE_UNIT3_FRONTROW_TOPFLOOR ATINLET,Air,1
 Node,789,ZONE INLET NODE_UNIT1_BACKROW_TOPFLOOR ATINLET,Air,1
 Node,790,ZONE INLET NODE_UNIT2_BACKROW_TOPFLOOR ATINLET,Air,1
 Node,791,ZONE INLET NODE_UNIT3_BACKROW_TOPFLOOR ATINLET,Air,1
 Node,792,ZONE INLET NODE_UNITHEATEDBSMT ATINLET,Air,1
! ===============================================================
! Suspicious nodes have 0 references.  It is normal for some nodes, however.
! Listing nodes with 0 references (culled from previous list):
! <Suspicious Node>,<NodeNumber>,<Node Name>,<Node Fluid Type>,<# Times Node Referenced After Definition>
 Suspicious Node,491,ZONE NODE_UNIT1_FRONTROW_BOTTOMFLOOR,Air,0
 Suspicious Node,493,ZONE NODE_UNIT2_FRONTROW_BOTTOMFLOOR,Air,0
 Suspicious Node,495,ZONE NODE_UNIT3_FRONTROW_BOTTOMFLOOR,Air,0
 Suspicious Node,497,ZONE NODE_UNIT1_BACKROW_BOTTOMFLOOR,Air,0
 Suspicious Node,499,ZONE NODE_UNIT2_BACKROW_BOTTOMFLOOR,Air,0
 Suspicious Node,501,ZONE NODE_UNIT3_BACKROW_BOTTOMFLOOR,Air,0
 Suspicious Node,503,ZONE NODE_UNIT1_FRONTROW_MIDDLEFLOOR,Air,0
 Suspicious Node,505,ZONE NODE_UNIT2_FRONTROW_MIDDLEFLOOR,Air,0
 Suspicious Node,507,ZONE NODE_UNIT3_FRONTROW_MIDDLEFLOOR,Air,0
 Suspicious Node,509,ZONE NODE_UNIT1_BACKROW_MIDDLEFLOOR,Air,0
 Suspicious Node,511,ZONE NODE_UNIT2_BACKROW_MIDDLEFLOOR,Air,0
 Suspicious Node,513,ZONE NODE_UNIT3_BACKROW_MIDDLEFLOOR,Air,0
 Suspicious Node,515,ZONE NODE_UNIT1_FRONTROW_TOPFLOOR,Air,0
 Suspicious Node,517,ZONE NODE_UNIT2_FRONTROW_TOPFLOOR,Air,0
 Suspicious Node,519,ZONE NODE_UNIT3_FRONTROW_TOPFLOOR,Air,0
 Suspicious Node,521,ZONE NODE_UNIT1_BACKROW_TOPFLOOR,Air,0
 Suspicious Node,523,ZONE NODE_UNIT2_BACKROW_TOPFLOOR,Air,0
 Suspicious Node,525,ZONE NODE_UNIT3_BACKROW_TOPFLOOR,Air,0
 Suspicious Node,527,ZONE NODE_UNITHEATEDBSMT,Air,0
 Suspicious Node,645,OUTSIDE AIR INLET NODE_UNIT1_FRONTROW_BOTTOMFLOOR,Air,0
 Suspicious Node,646,OUTSIDE AIR INLET NODE_UNIT2_FRONTROW_BOTTOMFLOOR,Air,0
 Suspicious Node,647,OUTSIDE AIR INLET NODE_UNIT3_FRONTROW_BOTTOMFLOOR,Air,0
 Suspicious Node,648,OUTSIDE AIR INLET NODE_UNIT1_BACKROW_BOTTOMFLOOR,Air,0
 Suspicious Node,649,OUTSIDE AIR INLET NODE_UNIT2_BACKROW_BOTTOMFLOOR,Air,0
 Suspicious Node,650,OUTSIDE AIR INLET NODE_UNIT3_BACKROW_BOTTOMFLOOR,Air,0
 Suspicious Node,651,OUTSIDE AIR INLET NODE_UNIT1_FRONTROW_MIDDLEFLOOR,Air,0
 Suspicious Node,652,OUTSIDE AIR INLET NODE_UNIT2_FRONTROW_MIDDLEFLOOR,Air,0
 Suspicious Node,653,OUTSIDE AIR INLET NODE_UNIT3_FRONTROW_MIDDLEFLOOR,Air,0
 Suspicious Node,654,OUTSIDE AIR INLET NODE_UNIT1_BACKROW_MIDDLEFLOOR,Air,0
 Suspicious Node,655,OUTSIDE AIR INLET NODE_UNIT2_BACKROW_MIDDLEFLOOR,Air,0
 Suspicious Node,656,OUTSIDE AIR INLET NODE_UNIT3_BACKROW_MIDDLEFLOOR,Air,0
 Suspicious Node,657,OUTSIDE AIR INLET NODE_UNIT1_FRONTROW_TOPFLOOR,Air,0
 Suspicious Node,658,OUTSIDE AIR INLET NODE_UNIT2_FRONTROW_TOPFLOOR,Air,0
 Suspicious Node,659,OUTSIDE AIR INLET NODE_UNIT3_FRONTROW_TOPFLOOR,Air,0
 Suspicious Node,660,OUTSIDE AIR INLET NODE_UNIT1_BACKROW_TOPFLOOR,Air,0
 Suspicious Node,661,OUTSIDE AIR INLET NODE_UNIT2_BACKROW_TOPFLOOR,Air,0
 Suspicious Node,662,OUTSIDE AIR INLET NODE_UNIT3_BACKROW_TOPFLOOR,Air,0
 Suspicious Node,663,OUTSIDE AIR INLET NODE_UNITHEATEDBSMT,Air,0
! ===============================================================
! <#Branch Lists>,<Number of Branch Lists>
 #Branch Lists,55
! <Branch List>,<Branch List Count>,<Branch List Name>,<Loop Name>,<Loop Type>,<Number of Branches>
! <Branch>,<Branch Count>,<Branch Name>,<Loop Name>,<Loop Type>,<Branch Inlet Node Name>,<Branch Outlet Node Name>
 Branch List,1,AIR LOOP BRANCHES_UNIT1_FRONTROW_BOTTOMFLOOR,CENTRAL SYSTEM_UNIT1_FRONTROW_BOTTOMFLOOR,Air,1
   Branch,1,AIR LOOP MAIN BRANCH_UNIT1_FRONTROW_BOTTOMFLOOR,CENTRAL SYSTEM_UNIT1_FRONTROW_BOTTOMFLOOR,Air,AIR LOOP INLET NODE_UNIT1_FRONTROW_BOTTOMFLOOR,AIR LOOP OUTLET NODE_UNIT1_FRONTROW_BOTTOMFLOOR
 Branch List,2,AIR LOOP BRANCHES_UNIT2_FRONTROW_BOTTOMFLOOR,CENTRAL SYSTEM_UNIT2_FRONTROW_BOTTOMFLOOR,Air,1
   Branch,1,AIR LOOP MAIN BRANCH_UNIT2_FRONTROW_BOTTOMFLOOR,CENTRAL SYSTEM_UNIT2_FRONTROW_BOTTOMFLOOR,Air,AIR LOOP INLET NODE_UNIT2_FRONTROW_BOTTOMFLOOR,AIR LOOP OUTLET NODE_UNIT2_FRONTROW_BOTTOMFLOOR
 Branch List,3,AIR LOOP BRANCHES_UNIT3_FRONTROW_BOTTOMFLOOR,CENTRAL SYSTEM_UNIT3_FRONTROW_BOTTOMFLOOR,Air,1
   Branch,1,AIR LOOP MAIN BRANCH_UNIT3_FRONTROW_BOTTOMFLOOR,CENTRAL SYSTEM_UNIT3_FRONTROW_BOTTOMFLOOR,Air,AIR LOOP INLET NODE_UNIT3_FRONTROW_BOTTOMFLOOR,AIR LOOP OUTLET NODE_UNIT3_FRONTROW_BOTTOMFLOOR
 Branch List,4,AIR LOOP BRANCHES_UNIT1_BACKROW_BOTTOMFLOOR,CENTRAL SYSTEM_UNIT1_BACKROW_BOTTOMFLOOR,Air,1
   Branch,1,AIR LOOP MAIN BRANCH_UNIT1_BACKROW_BOTTOMFLOOR,CENTRAL SYSTEM_UNIT1_BACKROW_BOTTOMFLOOR,Air,AIR LOOP INLET NODE_UNIT1_BACKROW_BOTTOMFLOOR,AIR LOOP OUTLET NODE_UNIT1_BACKROW_BOTTOMFLOOR
 Branch List,5,AIR LOOP BRANCHES_UNIT2_BACKROW_BOTTOMFLOOR,CENTRAL SYSTEM_UNIT2_BACKROW_BOTTOMFLOOR,Air,1
   Branch,1,AIR LOOP MAIN BRANCH_UNIT2_BACKROW_BOTTOMFLOOR,CENTRAL SYSTEM_UNIT2_BACKROW_BOTTOMFLOOR,Air,AIR LOOP INLET NODE_UNIT2_BACKROW_BOTTOMFLOOR,AIR LOOP OUTLET NODE_UNIT2_BACKROW_BOTTOMFLOOR
 Branch List,6,AIR LOOP BRANCHES_UNIT3_BACKROW_BOTTOMFLOOR,CENTRAL SYSTEM_UNIT3_BACKROW_BOTTOMFLOOR,Air,1
   Branch,1,AIR LOOP MAIN BRANCH_UNIT3_BACKROW_BOTTOMFLOOR,CENTRAL SYSTEM_UNIT3_BACKROW_BOTTOMFLOOR,Air,AIR LOOP INLET NODE_UNIT3_BACKROW_BOTTOMFLOOR,AIR LOOP OUTLET NODE_UNIT3_BACKROW_BOTTOMFLOOR
 Branch List,7,AIR LOOP BRANCHES_UNIT1_FRONTROW_MIDDLEFLOOR,CENTRAL SYSTEM_UNIT1_FRONTROW_MIDDLEFLOOR,Air,1
   Branch,1,AIR LOOP MAIN BRANCH_UNIT1_FRONTROW_MIDDLEFLOOR,CENTRAL SYSTEM_UNIT1_FRONTROW_MIDDLEFLOOR,Air,AIR LOOP INLET NODE_UNIT1_FRONTROW_MIDDLEFLOOR,AIR LOOP OUTLET NODE_UNIT1_FRONTROW_MIDDLEFLOOR
 Branch List,8,AIR LOOP BRANCHES_UNIT2_FRONTROW_MIDDLEFLOOR,CENTRAL SYSTEM_UNIT2_FRONTROW_MIDDLEFLOOR,Air,1
   Branch,1,AIR LOOP MAIN BRANCH_UNIT2_FRONTROW_MIDDLEFLOOR,CENTRAL SYSTEM_UNIT2_FRONTROW_MIDDLEFLOOR,Air,AIR LOOP INLET NODE_UNIT2_FRONTROW_MIDDLEFLOOR,AIR LOOP OUTLET NODE_UNIT2_FRONTROW_MIDDLEFLOOR
 Branch List,9,AIR LOOP BRANCHES_UNIT3_FRONTROW_MIDDLEFLOOR,CENTRAL SYSTEM_UNIT3_FRONTROW_MIDDLEFLOOR,Air,1
   Branch,1,AIR LOOP MAIN BRANCH_UNIT3_FRONTROW_MIDDLEFLOOR,CENTRAL SYSTEM_UNIT3_FRONTROW_MIDDLEFLOOR,Air,AIR LOOP INLET NODE_UNIT3_FRONTROW_MIDDLEFLOOR,AIR LOOP OUTLET NODE_UNIT3_FRONTROW_MIDDLEFLOOR
 Branch List,10,AIR LOOP BRANCHES_UNIT1_BACKROW_MIDDLEFLOOR,CENTRAL SYSTEM_UNIT1_BACKROW_MIDDLEFLOOR,Air,1
   Branch,1,AIR LOOP MAIN BRANCH_UNIT1_BACKROW_MIDDLEFLOOR,CENTRAL SYSTEM_UNIT1_BACKROW_MIDDLEFLOOR,Air,AIR LOOP INLET NODE_UNIT1_BACKROW_MIDDLEFLOOR,AIR LOOP OUTLET NODE_UNIT1_BACKROW_MIDDLEFLOOR
 Branch List,11,AIR LOOP BRANCHES_UNIT2_BACKROW_MIDDLEFLOOR,CENTRAL SYSTEM_UNIT2_BACKROW_MIDDLEFLOOR,Air,1
   Branch,1,AIR LOOP MAIN BRANCH_UNIT2_BACKROW_MIDDLEFLOOR,CENTRAL SYSTEM_UNIT2_BACKROW_MIDDLEFLOOR,Air,AIR LOOP INLET NODE_UNIT2_BACKROW_MIDDLEFLOOR,AIR LOOP OUTLET NODE_UNIT2_BACKROW_MIDDLEFLOOR
 Branch List,12,AIR LOOP BRANCHES_UNIT3_BACKROW_MIDDLEFLOOR,CENTRAL SYSTEM_UNIT3_BACKROW_MIDDLEFLOOR,Air,1
   Branch,1,AIR LOOP MAIN BRANCH_UNIT3_BACKROW_MIDDLEFLOOR,CENTRAL SYSTEM_UNIT3_BACKROW_MIDDLEFLOOR,Air,AIR LOOP INLET NODE_UNIT3_BACKROW_MIDDLEFLOOR,AIR LOOP OUTLET NODE_UNIT3_BACKROW_MIDDLEFLOOR
 Branch List,13,AIR LOOP BRANCHES_UNIT1_FRONTROW_TOPFLOOR,CENTRAL SYSTEM_UNIT1_FRONTROW_TOPFLOOR,Air,1
   Branch,1,AIR LOOP MAIN BRANCH_UNIT1_FRONTROW_TOPFLOOR,CENTRAL SYSTEM_UNIT1_FRONTROW_TOPFLOOR,Air,AIR LOOP INLET NODE_UNIT1_FRONTROW_TOPFLOOR,AIR LOOP OUTLET NODE_UNIT1_FRONTROW_TOPFLOOR
 Branch List,14,AIR LOOP BRANCHES_UNIT2_FRONTROW_TOPFLOOR,CENTRAL SYSTEM_UNIT2_FRONTROW_TOPFLOOR,Air,1
   Branch,1,AIR LOOP MAIN BRANCH_UNIT2_FRONTROW_TOPFLOOR,CENTRAL SYSTEM_UNIT2_FRONTROW_TOPFLOOR,Air,AIR LOOP INLET NODE_UNIT2_FRONTROW_TOPFLOOR,AIR LOOP OUTLET NODE_UNIT2_FRONTROW_TOPFLOOR
 Branch List,15,AIR LOOP BRANCHES_UNIT3_FRONTROW_TOPFLOOR,CENTRAL SYSTEM_UNIT3_FRONTROW_TOPFLOOR,Air,1
   Branch,1,AIR LOOP MAIN BRANCH_UNIT3_FRONTROW_TOPFLOOR,CENTRAL SYSTEM_UNIT3_FRONTROW_TOPFLOOR,Air,AIR LOOP INLET NODE_UNIT3_FRONTROW_TOPFLOOR,AIR LOOP OUTLET NODE_UNIT3_FRONTROW_TOPFLOOR
 Branch List,16,AIR LOOP BRANCHES_UNIT1_BACKROW_TOPFLOOR,CENTRAL SYSTEM_UNIT1_BACKROW_TOPFLOOR,Air,1
   Branch,1,AIR LOOP MAIN BRANCH_UNIT1_BACKROW_TOPFLOOR,CENTRAL SYSTEM_UNIT1_BACKROW_TOPFLOOR,Air,AIR LOOP INLET NODE_UNIT1_BACKROW_TOPFLOOR,AIR LOOP OUTLET NODE_UNIT1_BACKROW_TOPFLOOR
 Branch List,17,AIR LOOP BRANCHES_UNIT2_BACKROW_TOPFLOOR,CENTRAL SYSTEM_UNIT2_BACKROW_TOPFLOOR,Air,1
   Branch,1,AIR LOOP MAIN BRANCH_UNIT2_BACKROW_TOPFLOOR,CENTRAL SYSTEM_UNIT2_BACKROW_TOPFLOOR,Air,AIR LOOP INLET NODE_UNIT2_BACKROW_TOPFLOOR,AIR LOOP OUTLET NODE_UNIT2_BACKROW_TOPFLOOR
 Branch List,18,AIR LOOP BRANCHES_UNIT3_BACKROW_TOPFLOOR,CENTRAL SYSTEM_UNIT3_BACKROW_TOPFLOOR,Air,1
   Branch,1,AIR LOOP MAIN BRANCH_UNIT3_BACKROW_TOPFLOOR,CENTRAL SYSTEM_UNIT3_BACKROW_TOPFLOOR,Air,AIR LOOP INLET NODE_UNIT3_BACKROW_TOPFLOOR,AIR LOOP OUTLET NODE_UNIT3_BACKROW_TOPFLOOR
 Branch List,19,AIR LOOP BRANCHES_UNITHEATEDBSMT,CENTRAL SYSTEM_UNITHEATEDBSMT,Air,1
   Branch,1,AIR LOOP MAIN BRANCH_UNITHEATEDBSMT,CENTRAL SYSTEM_UNITHEATEDBSMT,Air,AIR LOOP INLET NODE_UNITHEATEDBSMT,AIR LOOP OUTLET NODE_UNITHEATEDBSMT
 Branch List,20,DHW SUPPLY BRANCHES_UNIT1_FRONTROW_BOTTOMFLOOR,DHW LOOP_UNIT1_FRONTROW_BOTTOMFLOOR,Plant Supply,3
   Branch,1,MAINS INLET BRANCH_UNIT1_FRONTROW_BOTTOMFLOOR,DHW LOOP_UNIT1_FRONTROW_BOTTOMFLOOR,Plant Supply,MAINS INLET NODE_UNIT1_FRONTROW_BOTTOMFLOOR,MAINS PRESSURE OUTLET NODE_UNIT1_FRONTROW_BOTTOMFLOOR
   Branch,2,WATER HEATER BRANCH_UNIT1_FRONTROW_BOTTOMFLOOR,DHW LOOP_UNIT1_FRONTROW_BOTTOMFLOOR,Plant Supply,WATER HEATER USE INLET NODE_UNIT1_FRONTROW_BOTTOMFLOOR,WATER HEATER USE OUTLET NODE_UNIT1_FRONTROW_BOTTOMFLOOR
   Branch,3,DHW SUPPLY OUTLET BRANCH_UNIT1_FRONTROW_BOTTOMFLOOR,DHW LOOP_UNIT1_FRONTROW_BOTTOMFLOOR,Plant Supply,DHW SUPPLY OUTLET PIPE INLET NODE_UNIT1_FRONTROW_BOTTOMFLOOR,DHW SUPPLY OUTLET NODE_UNIT1_FRONTROW_BOTTOMFLOOR
 Branch List,21,DHW DEMAND BRANCHES_UNIT1_FRONTROW_BOTTOMFLOOR,DHW LOOP_UNIT1_FRONTROW_BOTTOMFLOOR,Plant Demand,7
   Branch,1,DHW DEMAND INLET BRANCH_UNIT1_FRONTROW_BOTTOMFLOOR,DHW LOOP_UNIT1_FRONTROW_BOTTOMFLOOR,Plant Demand,DHW DEMAND INLET NODE_UNIT1_FRONTROW_BOTTOMFLOOR,DHW DEMAND INLET PIPE OUTLET NODE_UNIT1_FRONTROW_BOTTOMFLOOR
   Branch,2,WATER SINK BRANCH_UNIT1_FRONTROW_BOTTOMFLOOR,DHW LOOP_UNIT1_FRONTROW_BOTTOMFLOOR,Plant Demand,WATER SINK INLET NODE_UNIT1_FRONTROW_BOTTOMFLOOR,WATER SINK OUTLET NODE_UNIT1_FRONTROW_BOTTOMFLOOR
   Branch,3,WATER SHOWER BRANCH_UNIT1_FRONTROW_BOTTOMFLOOR,DHW LOOP_UNIT1_FRONTROW_BOTTOMFLOOR,Plant Demand,WATER SHOWER INLET NODE_UNIT1_FRONTROW_BOTTOMFLOOR,WATER SHOWER OUTLET NODE_UNIT1_FRONTROW_BOTTOMFLOOR
   Branch,4,WATER CLOTHESWASHER BRANCH_UNIT1_FRONTROW_BOTTOMFLOOR,DHW LOOP_UNIT1_FRONTROW_BOTTOMFLOOR,Plant Demand,WATER CLOTHESWASHER INLET NODE_UNIT1_FRONTROW_BOTTOMFLOOR,WATER CLOTHESWASHER OUTLET NODE_UNIT1_FRONTROW_BOTTOMFLOOR
   Branch,5,WATER DISHWASHER BRANCH_UNIT1_FRONTROW_BOTTOMFLOOR,DHW LOOP_UNIT1_FRONTROW_BOTTOMFLOOR,Plant Demand,WATER DISHWASHER INLET NODE_UNIT1_FRONTROW_BOTTOMFLOOR,WATER DISHWASHER OUTLET NODE_UNIT1_FRONTROW_BOTTOMFLOOR
   Branch,6,WATER BATH BRANCH_UNIT1_FRONTROW_BOTTOMFLOOR,DHW LOOP_UNIT1_FRONTROW_BOTTOMFLOOR,Plant Demand,WATER BATH INLET NODE_UNIT1_FRONTROW_BOTTOMFLOOR,WATER BATH OUTLET NODE_UNIT1_FRONTROW_BOTTOMFLOOR
   Branch,7,MAINS MAKEUP BRANCH_UNIT1_FRONTROW_BOTTOMFLOOR,DHW LOOP_UNIT1_FRONTROW_BOTTOMFLOOR,Plant Demand,MAINS MAKEUP PIPE INLET NODE_UNIT1_FRONTROW_BOTTOMFLOOR,MAINS MAKEUP NODE_UNIT1_FRONTROW_BOTTOMFLOOR
 Branch List,22,DHW SUPPLY BRANCHES_UNIT2_FRONTROW_BOTTOMFLOOR,DHW LOOP_UNIT2_FRONTROW_BOTTOMFLOOR,Plant Supply,3
   Branch,1,MAINS INLET BRANCH_UNIT2_FRONTROW_BOTTOMFLOOR,DHW LOOP_UNIT2_FRONTROW_BOTTOMFLOOR,Plant Supply,MAINS INLET NODE_UNIT2_FRONTROW_BOTTOMFLOOR,MAINS PRESSURE OUTLET NODE_UNIT2_FRONTROW_BOTTOMFLOOR
   Branch,2,WATER HEATER BRANCH_UNIT2_FRONTROW_BOTTOMFLOOR,DHW LOOP_UNIT2_FRONTROW_BOTTOMFLOOR,Plant Supply,WATER HEATER USE INLET NODE_UNIT2_FRONTROW_BOTTOMFLOOR,WATER HEATER USE OUTLET NODE_UNIT2_FRONTROW_BOTTOMFLOOR
   Branch,3,DHW SUPPLY OUTLET BRANCH_UNIT2_FRONTROW_BOTTOMFLOOR,DHW LOOP_UNIT2_FRONTROW_BOTTOMFLOOR,Plant Supply,DHW SUPPLY OUTLET PIPE INLET NODE_UNIT2_FRONTROW_BOTTOMFLOOR,DHW SUPPLY OUTLET NODE_UNIT2_FRONTROW_BOTTOMFLOOR
 Branch List,23,DHW DEMAND BRANCHES_UNIT2_FRONTROW_BOTTOMFLOOR,DHW LOOP_UNIT2_FRONTROW_BOTTOMFLOOR,Plant Demand,7
   Branch,1,DHW DEMAND INLET BRANCH_UNIT2_FRONTROW_BOTTOMFLOOR,DHW LOOP_UNIT2_FRONTROW_BOTTOMFLOOR,Plant Demand,DHW DEMAND INLET NODE_UNIT2_FRONTROW_BOTTOMFLOOR,DHW DEMAND INLET PIPE OUTLET NODE_UNIT2_FRONTROW_BOTTOMFLOOR
   Branch,2,WATER SINK BRANCH_UNIT2_FRONTROW_BOTTOMFLOOR,DHW LOOP_UNIT2_FRONTROW_BOTTOMFLOOR,Plant Demand,WATER SINK INLET NODE_UNIT2_FRONTROW_BOTTOMFLOOR,WATER SINK OUTLET NODE_UNIT2_FRONTROW_BOTTOMFLOOR
   Branch,3,WATER SHOWER BRANCH_UNIT2_FRONTROW_BOTTOMFLOOR,DHW LOOP_UNIT2_FRONTROW_BOTTOMFLOOR,Plant Demand,WATER SHOWER INLET NODE_UNIT2_FRONTROW_BOTTOMFLOOR,WATER SHOWER OUTLET NODE_UNIT2_FRONTROW_BOTTOMFLOOR
   Branch,4,WATER CLOTHESWASHER BRANCH_UNIT2_FRONTROW_BOTTOMFLOOR,DHW LOOP_UNIT2_FRONTROW_BOTTOMFLOOR,Plant Demand,WATER CLOTHESWASHER INLET NODE_UNIT2_FRONTROW_BOTTOMFLOOR,WATER CLOTHESWASHER OUTLET NODE_UNIT2_FRONTROW_BOTTOMFLOOR
   Branch,5,WATER DISHWASHER BRANCH_UNIT2_FRONTROW_BOTTOMFLOOR,DHW LOOP_UNIT2_FRONTROW_BOTTOMFLOOR,Plant Demand,WATER DISHWASHER INLET NODE_UNIT2_FRONTROW_BOTTOMFLOOR,WATER DISHWASHER OUTLET NODE_UNIT2_FRONTROW_BOTTOMFLOOR
   Branch,6,WATER BATH BRANCH_UNIT2_FRONTROW_BOTTOMFLOOR,DHW LOOP_UNIT2_FRONTROW_BOTTOMFLOOR,Plant Demand,WATER BATH INLET NODE_UNIT2_FRONTROW_BOTTOMFLOOR,WATER BATH OUTLET NODE_UNIT2_FRONTROW_BOTTOMFLOOR
   Branch,7,MAINS MAKEUP BRANCH_UNIT2_FRONTROW_BOTTOMFLOOR,DHW LOOP_UNIT2_FRONTROW_BOTTOMFLOOR,Plant Demand,MAINS MAKEUP PIPE INLET NODE_UNIT2_FRONTROW_BOTTOMFLOOR,MAINS MAKEUP NODE_UNIT2_FRONTROW_BOTTOMFLOOR
 Branch List,24,DHW SUPPLY BRANCHES_UNIT3_FRONTROW_BOTTOMFLOOR,DHW LOOP_UNIT3_FRONTROW_BOTTOMFLOOR,Plant Supply,3
   Branch,1,MAINS INLET BRANCH_UNIT3_FRONTROW_BOTTOMFLOOR,DHW LOOP_UNIT3_FRONTROW_BOTTOMFLOOR,Plant Supply,MAINS INLET NODE_UNIT3_FRONTROW_BOTTOMFLOOR,MAINS PRESSURE OUTLET NODE_UNIT3_FRONTROW_BOTTOMFLOOR
   Branch,2,WATER HEATER BRANCH_UNIT3_FRONTROW_BOTTOMFLOOR,DHW LOOP_UNIT3_FRONTROW_BOTTOMFLOOR,Plant Supply,WATER HEATER USE INLET NODE_UNIT3_FRONTROW_BOTTOMFLOOR,WATER HEATER USE OUTLET NODE_UNIT3_FRONTROW_BOTTOMFLOOR
   Branch,3,DHW SUPPLY OUTLET BRANCH_UNIT3_FRONTROW_BOTTOMFLOOR,DHW LOOP_UNIT3_FRONTROW_BOTTOMFLOOR,Plant Supply,DHW SUPPLY OUTLET PIPE INLET NODE_UNIT3_FRONTROW_BOTTOMFLOOR,DHW SUPPLY OUTLET NODE_UNIT3_FRONTROW_BOTTOMFLOOR
 Branch List,25,DHW DEMAND BRANCHES_UNIT3_FRONTROW_BOTTOMFLOOR,DHW LOOP_UNIT3_FRONTROW_BOTTOMFLOOR,Plant Demand,7
   Branch,1,DHW DEMAND INLET BRANCH_UNIT3_FRONTROW_BOTTOMFLOOR,DHW LOOP_UNIT3_FRONTROW_BOTTOMFLOOR,Plant Demand,DHW DEMAND INLET NODE_UNIT3_FRONTROW_BOTTOMFLOOR,DHW DEMAND INLET PIPE OUTLET NODE_UNIT3_FRONTROW_BOTTOMFLOOR
   Branch,2,WATER SINK BRANCH_UNIT3_FRONTROW_BOTTOMFLOOR,DHW LOOP_UNIT3_FRONTROW_BOTTOMFLOOR,Plant Demand,WATER SINK INLET NODE_UNIT3_FRONTROW_BOTTOMFLOOR,WATER SINK OUTLET NODE_UNIT3_FRONTROW_BOTTOMFLOOR
   Branch,3,WATER SHOWER BRANCH_UNIT3_FRONTROW_BOTTOMFLOOR,DHW LOOP_UNIT3_FRONTROW_BOTTOMFLOOR,Plant Demand,WATER SHOWER INLET NODE_UNIT3_FRONTROW_BOTTOMFLOOR,WATER SHOWER OUTLET NODE_UNIT3_FRONTROW_BOTTOMFLOOR
   Branch,4,WATER CLOTHESWASHER BRANCH_UNIT3_FRONTROW_BOTTOMFLOOR,DHW LOOP_UNIT3_FRONTROW_BOTTOMFLOOR,Plant Demand,WATER CLOTHESWASHER INLET NODE_UNIT3_FRONTROW_BOTTOMFLOOR,WATER CLOTHESWASHER OUTLET NODE_UNIT3_FRONTROW_BOTTOMFLOOR
   Branch,5,WATER DISHWASHER BRANCH_UNIT3_FRONTROW_BOTTOMFLOOR,DHW LOOP_UNIT3_FRONTROW_BOTTOMFLOOR,Plant Demand,WATER DISHWASHER INLET NODE_UNIT3_FRONTROW_BOTTOMFLOOR,WATER DISHWASHER OUTLET NODE_UNIT3_FRONTROW_BOTTOMFLOOR
   Branch,6,WATER BATH BRANCH_UNIT3_FRONTROW_BOTTOMFLOOR,DHW LOOP_UNIT3_FRONTROW_BOTTOMFLOOR,Plant Demand,WATER BATH INLET NODE_UNIT3_FRONTROW_BOTTOMFLOOR,WATER BATH OUTLET NODE_UNIT3_FRONTROW_BOTTOMFLOOR
   Branch,7,MAINS MAKEUP BRANCH_UNIT3_FRONTROW_BOTTOMFLOOR,DHW LOOP_UNIT3_FRONTROW_BOTTOMFLOOR,Plant Demand,MAINS MAKEUP PIPE INLET NODE_UNIT3_FRONTROW_BOTTOMFLOOR,MAINS MAKEUP NODE_UNIT3_FRONTROW_BOTTOMFLOOR
 Branch List,26,DHW SUPPLY BRANCHES_UNIT1_BACKROW_BOTTOMFLOOR,DHW LOOP_UNIT1_BACKROW_BOTTOMFLOOR,Plant Supply,3
   Branch,1,MAINS INLET BRANCH_UNIT1_BACKROW_BOTTOMFLOOR,DHW LOOP_UNIT1_BACKROW_BOTTOMFLOOR,Plant Supply,MAINS INLET NODE_UNIT1_BACKROW_BOTTOMFLOOR,MAINS PRESSURE OUTLET NODE_UNIT1_BACKROW_BOTTOMFLOOR
   Branch,2,WATER HEATER BRANCH_UNIT1_BACKROW_BOTTOMFLOOR,DHW LOOP_UNIT1_BACKROW_BOTTOMFLOOR,Plant Supply,WATER HEATER USE INLET NODE_UNIT1_BACKROW_BOTTOMFLOOR,WATER HEATER USE OUTLET NODE_UNIT1_BACKROW_BOTTOMFLOOR
   Branch,3,DHW SUPPLY OUTLET BRANCH_UNIT1_BACKROW_BOTTOMFLOOR,DHW LOOP_UNIT1_BACKROW_BOTTOMFLOOR,Plant Supply,DHW SUPPLY OUTLET PIPE INLET NODE_UNIT1_BACKROW_BOTTOMFLOOR,DHW SUPPLY OUTLET NODE_UNIT1_BACKROW_BOTTOMFLOOR
 Branch List,27,DHW DEMAND BRANCHES_UNIT1_BACKROW_BOTTOMFLOOR,DHW LOOP_UNIT1_BACKROW_BOTTOMFLOOR,Plant Demand,7
   Branch,1,DHW DEMAND INLET BRANCH_UNIT1_BACKROW_BOTTOMFLOOR,DHW LOOP_UNIT1_BACKROW_BOTTOMFLOOR,Plant Demand,DHW DEMAND INLET NODE_UNIT1_BACKROW_BOTTOMFLOOR,DHW DEMAND INLET PIPE OUTLET NODE_UNIT1_BACKROW_BOTTOMFLOOR
   Branch,2,WATER SINK BRANCH_UNIT1_BACKROW_BOTTOMFLOOR,DHW LOOP_UNIT1_BACKROW_BOTTOMFLOOR,Plant Demand,WATER SINK INLET NODE_UNIT1_BACKROW_BOTTOMFLOOR,WATER SINK OUTLET NODE_UNIT1_BACKROW_BOTTOMFLOOR
   Branch,3,WATER SHOWER BRANCH_UNIT1_BACKROW_BOTTOMFLOOR,DHW LOOP_UNIT1_BACKROW_BOTTOMFLOOR,Plant Demand,WATER SHOWER INLET NODE_UNIT1_BACKROW_BOTTOMFLOOR,WATER SHOWER OUTLET NODE_UNIT1_BACKROW_BOTTOMFLOOR
   Branch,4,WATER CLOTHESWASHER BRANCH_UNIT1_BACKROW_BOTTOMFLOOR,DHW LOOP_UNIT1_BACKROW_BOTTOMFLOOR,Plant Demand,WATER CLOTHESWASHER INLET NODE_UNIT1_BACKROW_BOTTOMFLOOR,WATER CLOTHESWASHER OUTLET NODE_UNIT1_BACKROW_BOTTOMFLOOR
   Branch,5,WATER DISHWASHER BRANCH_UNIT1_BACKROW_BOTTOMFLOOR,DHW LOOP_UNIT1_BACKROW_BOTTOMFLOOR,Plant Demand,WATER DISHWASHER INLET NODE_UNIT1_BACKROW_BOTTOMFLOOR,WATER DISHWASHER OUTLET NODE_UNIT1_BACKROW_BOTTOMFLOOR
   Branch,6,WATER BATH BRANCH_UNIT1_BACKROW_BOTTOMFLOOR,DHW LOOP_UNIT1_BACKROW_BOTTOMFLOOR,Plant Demand,WATER BATH INLET NODE_UNIT1_BACKROW_BOTTOMFLOOR,WATER BATH OUTLET NODE_UNIT1_BACKROW_BOTTOMFLOOR
   Branch,7,MAINS MAKEUP BRANCH_UNIT1_BACKROW_BOTTOMFLOOR,DHW LOOP_UNIT1_BACKROW_BOTTOMFLOOR,Plant Demand,MAINS MAKEUP PIPE INLET NODE_UNIT1_BACKROW_BOTTOMFLOOR,MAINS MAKEUP NODE_UNIT1_BACKROW_BOTTOMFLOOR
 Branch List,28,DHW SUPPLY BRANCHES_UNIT2_BACKROW_BOTTOMFLOOR,DHW LOOP_UNIT2_BACKROW_BOTTOMFLOOR,Plant Supply,3
   Branch,1,MAINS INLET BRANCH_UNIT2_BACKROW_BOTTOMFLOOR,DHW LOOP_UNIT2_BACKROW_BOTTOMFLOOR,Plant Supply,MAINS INLET NODE_UNIT2_BACKROW_BOTTOMFLOOR,MAINS PRESSURE OUTLET NODE_UNIT2_BACKROW_BOTTOMFLOOR
   Branch,2,WATER HEATER BRANCH_UNIT2_BACKROW_BOTTOMFLOOR,DHW LOOP_UNIT2_BACKROW_BOTTOMFLOOR,Plant Supply,WATER HEATER USE INLET NODE_UNIT2_BACKROW_BOTTOMFLOOR,WATER HEATER USE OUTLET NODE_UNIT2_BACKROW_BOTTOMFLOOR
   Branch,3,DHW SUPPLY OUTLET BRANCH_UNIT2_BACKROW_BOTTOMFLOOR,DHW LOOP_UNIT2_BACKROW_BOTTOMFLOOR,Plant Supply,DHW SUPPLY OUTLET PIPE INLET NODE_UNIT2_BACKROW_BOTTOMFLOOR,DHW SUPPLY OUTLET NODE_UNIT2_BACKROW_BOTTOMFLOOR
 Branch List,29,DHW DEMAND BRANCHES_UNIT2_BACKROW_BOTTOMFLOOR,DHW LOOP_UNIT2_BACKROW_BOTTOMFLOOR,Plant Demand,7
   Branch,1,DHW DEMAND INLET BRANCH_UNIT2_BACKROW_BOTTOMFLOOR,DHW LOOP_UNIT2_BACKROW_BOTTOMFLOOR,Plant Demand,DHW DEMAND INLET NODE_UNIT2_BACKROW_BOTTOMFLOOR,DHW DEMAND INLET PIPE OUTLET NODE_UNIT2_BACKROW_BOTTOMFLOOR
   Branch,2,WATER SINK BRANCH_UNIT2_BACKROW_BOTTOMFLOOR,DHW LOOP_UNIT2_BACKROW_BOTTOMFLOOR,Plant Demand,WATER SINK INLET NODE_UNIT2_BACKROW_BOTTOMFLOOR,WATER SINK OUTLET NODE_UNIT2_BACKROW_BOTTOMFLOOR
   Branch,3,WATER SHOWER BRANCH_UNIT2_BACKROW_BOTTOMFLOOR,DHW LOOP_UNIT2_BACKROW_BOTTOMFLOOR,Plant Demand,WATER SHOWER INLET NODE_UNIT2_BACKROW_BOTTOMFLOOR,WATER SHOWER OUTLET NODE_UNIT2_BACKROW_BOTTOMFLOOR
   Branch,4,WATER CLOTHESWASHER BRANCH_UNIT2_BACKROW_BOTTOMFLOOR,DHW LOOP_UNIT2_BACKROW_BOTTOMFLOOR,Plant Demand,WATER CLOTHESWASHER INLET NODE_UNIT2_BACKROW_BOTTOMFLOOR,WATER CLOTHESWASHER OUTLET NODE_UNIT2_BACKROW_BOTTOMFLOOR
   Branch,5,WATER DISHWASHER BRANCH_UNIT2_BACKROW_BOTTOMFLOOR,DHW LOOP_UNIT2_BACKROW_BOTTOMFLOOR,Plant Demand,WATER DISHWASHER INLET NODE_UNIT2_BACKROW_BOTTOMFLOOR,WATER DISHWASHER OUTLET NODE_UNIT2_BACKROW_BOTTOMFLOOR
   Branch,6,WATER BATH BRANCH_UNIT2_BACKROW_BOTTOMFLOOR,DHW LOOP_UNIT2_BACKROW_BOTTOMFLOOR,Plant Demand,WATER BATH INLET NODE_UNIT2_BACKROW_BOTTOMFLOOR,WATER BATH OUTLET NODE_UNIT2_BACKROW_BOTTOMFLOOR
   Branch,7,MAINS MAKEUP BRANCH_UNIT2_BACKROW_BOTTOMFLOOR,DHW LOOP_UNIT2_BACKROW_BOTTOMFLOOR,Plant Demand,MAINS MAKEUP PIPE INLET NODE_UNIT2_BACKROW_BOTTOMFLOOR,MAINS MAKEUP NODE_UNIT2_BACKROW_BOTTOMFLOOR
 Branch List,30,DHW SUPPLY BRANCHES_UNIT3_BACKROW_BOTTOMFLOOR,DHW LOOP_UNIT3_BACKROW_BOTTOMFLOOR,Plant Supply,3
   Branch,1,MAINS INLET BRANCH_UNIT3_BACKROW_BOTTOMFLOOR,DHW LOOP_UNIT3_BACKROW_BOTTOMFLOOR,Plant Supply,MAINS INLET NODE_UNIT3_BACKROW_BOTTOMFLOOR,MAINS PRESSURE OUTLET NODE_UNIT3_BACKROW_BOTTOMFLOOR
   Branch,2,WATER HEATER BRANCH_UNIT3_BACKROW_BOTTOMFLOOR,DHW LOOP_UNIT3_BACKROW_BOTTOMFLOOR,Plant Supply,WATER HEATER USE INLET NODE_UNIT3_BACKROW_BOTTOMFLOOR,WATER HEATER USE OUTLET NODE_UNIT3_BACKROW_BOTTOMFLOOR
   Branch,3,DHW SUPPLY OUTLET BRANCH_UNIT3_BACKROW_BOTTOMFLOOR,DHW LOOP_UNIT3_BACKROW_BOTTOMFLOOR,Plant Supply,DHW SUPPLY OUTLET PIPE INLET NODE_UNIT3_BACKROW_BOTTOMFLOOR,DHW SUPPLY OUTLET NODE_UNIT3_BACKROW_BOTTOMFLOOR
 Branch List,31,DHW DEMAND BRANCHES_UNIT3_BACKROW_BOTTOMFLOOR,DHW LOOP_UNIT3_BACKROW_BOTTOMFLOOR,Plant Demand,7
   Branch,1,DHW DEMAND INLET BRANCH_UNIT3_BACKROW_BOTTOMFLOOR,DHW LOOP_UNIT3_BACKROW_BOTTOMFLOOR,Plant Demand,DHW DEMAND INLET NODE_UNIT3_BACKROW_BOTTOMFLOOR,DHW DEMAND INLET PIPE OUTLET NODE_UNIT3_BACKROW_BOTTOMFLOOR
   Branch,2,WATER SINK BRANCH_UNIT3_BACKROW_BOTTOMFLOOR,DHW LOOP_UNIT3_BACKROW_BOTTOMFLOOR,Plant Demand,WATER SINK INLET NODE_UNIT3_BACKROW_BOTTOMFLOOR,WATER SINK OUTLET NODE_UNIT3_BACKROW_BOTTOMFLOOR
   Branch,3,WATER SHOWER BRANCH_UNIT3_BACKROW_BOTTOMFLOOR,DHW LOOP_UNIT3_BACKROW_BOTTOMFLOOR,Plant Demand,WATER SHOWER INLET NODE_UNIT3_BACKROW_BOTTOMFLOOR,WATER SHOWER OUTLET NODE_UNIT3_BACKROW_BOTTOMFLOOR
   Branch,4,WATER CLOTHESWASHER BRANCH_UNIT3_BACKROW_BOTTOMFLOOR,DHW LOOP_UNIT3_BACKROW_BOTTOMFLOOR,Plant Demand,WATER CLOTHESWASHER INLET NODE_UNIT3_BACKROW_BOTTOMFLOOR,WATER CLOTHESWASHER OUTLET NODE_UNIT3_BACKROW_BOTTOMFLOOR
   Branch,5,WATER DISHWASHER BRANCH_UNIT3_BACKROW_BOTTOMFLOOR,DHW LOOP_UNIT3_BACKROW_BOTTOMFLOOR,Plant Demand,WATER DISHWASHER INLET NODE_UNIT3_BACKROW_BOTTOMFLOOR,WATER DISHWASHER OUTLET NODE_UNIT3_BACKROW_BOTTOMFLOOR
   Branch,6,WATER BATH BRANCH_UNIT3_BACKROW_BOTTOMFLOOR,DHW LOOP_UNIT3_BACKROW_BOTTOMFLOOR,Plant Demand,WATER BATH INLET NODE_UNIT3_BACKROW_BOTTOMFLOOR,WATER BATH OUTLET NODE_UNIT3_BACKROW_BOTTOMFLOOR
   Branch,7,MAINS MAKEUP BRANCH_UNIT3_BACKROW_BOTTOMFLOOR,DHW LOOP_UNIT3_BACKROW_BOTTOMFLOOR,Plant Demand,MAINS MAKEUP PIPE INLET NODE_UNIT3_BACKROW_BOTTOMFLOOR,MAINS MAKEUP NODE_UNIT3_BACKROW_BOTTOMFLOOR
 Branch List,32,DHW SUPPLY BRANCHES_UNIT1_FRONTROW_MIDDLEFLOOR,DHW LOOP_UNIT1_FRONTROW_MIDDLEFLOOR,Plant Supply,3
   Branch,1,MAINS INLET BRANCH_UNIT1_FRONTROW_MIDDLEFLOOR,DHW LOOP_UNIT1_FRONTROW_MIDDLEFLOOR,Plant Supply,MAINS INLET NODE_UNIT1_FRONTROW_MIDDLEFLOOR,MAINS PRESSURE OUTLET NODE_UNIT1_FRONTROW_MIDDLEFLOOR
   Branch,2,WATER HEATER BRANCH_UNIT1_FRONTROW_MIDDLEFLOOR,DHW LOOP_UNIT1_FRONTROW_MIDDLEFLOOR,Plant Supply,WATER HEATER USE INLET NODE_UNIT1_FRONTROW_MIDDLEFLOOR,WATER HEATER USE OUTLET NODE_UNIT1_FRONTROW_MIDDLEFLOOR
   Branch,3,DHW SUPPLY OUTLET BRANCH_UNIT1_FRONTROW_MIDDLEFLOOR,DHW LOOP_UNIT1_FRONTROW_MIDDLEFLOOR,Plant Supply,DHW SUPPLY OUTLET PIPE INLET NODE_UNIT1_FRONTROW_MIDDLEFLOOR,DHW SUPPLY OUTLET NODE_UNIT1_FRONTROW_MIDDLEFLOOR
 Branch List,33,DHW DEMAND BRANCHES_UNIT1_FRONTROW_MIDDLEFLOOR,DHW LOOP_UNIT1_FRONTROW_MIDDLEFLOOR,Plant Demand,7
   Branch,1,DHW DEMAND INLET BRANCH_UNIT1_FRONTROW_MIDDLEFLOOR,DHW LOOP_UNIT1_FRONTROW_MIDDLEFLOOR,Plant Demand,DHW DEMAND INLET NODE_UNIT1_FRONTROW_MIDDLEFLOOR,DHW DEMAND INLET PIPE OUTLET NODE_UNIT1_FRONTROW_MIDDLEFLOOR
   Branch,2,WATER SINK BRANCH_UNIT1_FRONTROW_MIDDLEFLOOR,DHW LOOP_UNIT1_FRONTROW_MIDDLEFLOOR,Plant Demand,WATER SINK INLET NODE_UNIT1_FRONTROW_MIDDLEFLOOR,WATER SINK OUTLET NODE_UNIT1_FRONTROW_MIDDLEFLOOR
   Branch,3,WATER SHOWER BRANCH_UNIT1_FRONTROW_MIDDLEFLOOR,DHW LOOP_UNIT1_FRONTROW_MIDDLEFLOOR,Plant Demand,WATER SHOWER INLET NODE_UNIT1_FRONTROW_MIDDLEFLOOR,WATER SHOWER OUTLET NODE_UNIT1_FRONTROW_MIDDLEFLOOR
   Branch,4,WATER CLOTHESWASHER BRANCH_UNIT1_FRONTROW_MIDDLEFLOOR,DHW LOOP_UNIT1_FRONTROW_MIDDLEFLOOR,Plant Demand,WATER CLOTHESWASHER INLET NODE_UNIT1_FRONTROW_MIDDLEFLOOR,WATER CLOTHESWASHER OUTLET NODE_UNIT1_FRONTROW_MIDDLEFLOOR
   Branch,5,WATER DISHWASHER BRANCH_UNIT1_FRONTROW_MIDDLEFLOOR,DHW LOOP_UNIT1_FRONTROW_MIDDLEFLOOR,Plant Demand,WATER DISHWASHER INLET NODE_UNIT1_FRONTROW_MIDDLEFLOOR,WATER DISHWASHER OUTLET NODE_UNIT1_FRONTROW_MIDDLEFLOOR
   Branch,6,WATER BATH BRANCH_UNIT1_FRONTROW_MIDDLEFLOOR,DHW LOOP_UNIT1_FRONTROW_MIDDLEFLOOR,Plant Demand,WATER BATH INLET NODE_UNIT1_FRONTROW_MIDDLEFLOOR,WATER BATH OUTLET NODE_UNIT1_FRONTROW_MIDDLEFLOOR
   Branch,7,MAINS MAKEUP BRANCH_UNIT1_FRONTROW_MIDDLEFLOOR,DHW LOOP_UNIT1_FRONTROW_MIDDLEFLOOR,Plant Demand,MAINS MAKEUP PIPE INLET NODE_UNIT1_FRONTROW_MIDDLEFLOOR,MAINS MAKEUP NODE_UNIT1_FRONTROW_MIDDLEFLOOR
 Branch List,34,DHW SUPPLY BRANCHES_UNIT2_FRONTROW_MIDDLEFLOOR,DHW LOOP_UNIT2_FRONTROW_MIDDLEFLOOR,Plant Supply,3
   Branch,1,MAINS INLET BRANCH_UNIT2_FRONTROW_MIDDLEFLOOR,DHW LOOP_UNIT2_FRONTROW_MIDDLEFLOOR,Plant Supply,MAINS INLET NODE_UNIT2_FRONTROW_MIDDLEFLOOR,MAINS PRESSURE OUTLET NODE_UNIT2_FRONTROW_MIDDLEFLOOR
   Branch,2,WATER HEATER BRANCH_UNIT2_FRONTROW_MIDDLEFLOOR,DHW LOOP_UNIT2_FRONTROW_MIDDLEFLOOR,Plant Supply,WATER HEATER USE INLET NODE_UNIT2_FRONTROW_MIDDLEFLOOR,WATER HEATER USE OUTLET NODE_UNIT2_FRONTROW_MIDDLEFLOOR
[...]
 Non-Parent Node Connection,ZONE INLET NODE_UNIT1_BACKROW_MIDDLEFLOOR,AIRTERMINAL:SINGLEDUCT:CONSTANTVOLUME:NOREHEAT,ZONEDIRECTAIR_UNIT1_BACKROW_MIDDLEFLOOR,Outlet,1
 Non-Parent Node Connection,ZONE INLET NODE_UNIT2_BACKROW_MIDDLEFLOOR ATINLET,AIRTERMINAL:SINGLEDUCT:CONSTANTVOLUME:NOREHEAT,ZONEDIRECTAIR_UNIT2_BACKROW_MIDDLEFLOOR,Inlet,1
 Non-Parent Node Connection,ZONE INLET NODE_UNIT2_BACKROW_MIDDLEFLOOR,AIRTERMINAL:SINGLEDUCT:CONSTANTVOLUME:NOREHEAT,ZONEDIRECTAIR_UNIT2_BACKROW_MIDDLEFLOOR,Outlet,1
 Non-Parent Node Connection,ZONE INLET NODE_UNIT3_BACKROW_MIDDLEFLOOR ATINLET,AIRTERMINAL:SINGLEDUCT:CONSTANTVOLUME:NOREHEAT,ZONEDIRECTAIR_UNIT3_BACKROW_MIDDLEFLOOR,Inlet,1
 Non-Parent Node Connection,ZONE INLET NODE_UNIT3_BACKROW_MIDDLEFLOOR,AIRTERMINAL:SINGLEDUCT:CONSTANTVOLUME:NOREHEAT,ZONEDIRECTAIR_UNIT3_BACKROW_MIDDLEFLOOR,Outlet,1
 Non-Parent Node Connection,ZONE INLET NODE_UNIT1_FRONTROW_TOPFLOOR ATINLET,AIRTERMINAL:SINGLEDUCT:CONSTANTVOLUME:NOREHEAT,ZONEDIRECTAIR_UNIT1_FRONTROW_TOPFLOOR,Inlet,1
 Non-Parent Node Connection,ZONE INLET NODE_UNIT1_FRONTROW_TOPFLOOR,AIRTERMINAL:SINGLEDUCT:CONSTANTVOLUME:NOREHEAT,ZONEDIRECTAIR_UNIT1_FRONTROW_TOPFLOOR,Outlet,1
 Non-Parent Node Connection,ZONE INLET NODE_UNIT2_FRONTROW_TOPFLOOR ATINLET,AIRTERMINAL:SINGLEDUCT:CONSTANTVOLUME:NOREHEAT,ZONEDIRECTAIR_UNIT2_FRONTROW_TOPFLOOR,Inlet,1
 Non-Parent Node Connection,ZONE INLET NODE_UNIT2_FRONTROW_TOPFLOOR,AIRTERMINAL:SINGLEDUCT:CONSTANTVOLUME:NOREHEAT,ZONEDIRECTAIR_UNIT2_FRONTROW_TOPFLOOR,Outlet,1
 Non-Parent Node Connection,ZONE INLET NODE_UNIT3_FRONTROW_TOPFLOOR ATINLET,AIRTERMINAL:SINGLEDUCT:CONSTANTVOLUME:NOREHEAT,ZONEDIRECTAIR_UNIT3_FRONTROW_TOPFLOOR,Inlet,1
 Non-Parent Node Connection,ZONE INLET NODE_UNIT3_FRONTROW_TOPFLOOR,AIRTERMINAL:SINGLEDUCT:CONSTANTVOLUME:NOREHEAT,ZONEDIRECTAIR_UNIT3_FRONTROW_TOPFLOOR,Outlet,1
 Non-Parent Node Connection,ZONE INLET NODE_UNIT1_BACKROW_TOPFLOOR ATINLET,AIRTERMINAL:SINGLEDUCT:CONSTANTVOLUME:NOREHEAT,ZONEDIRECTAIR_UNIT1_BACKROW_TOPFLOOR,Inlet,1
 Non-Parent Node Connection,ZONE INLET NODE_UNIT1_BACKROW_TOPFLOOR,AIRTERMINAL:SINGLEDUCT:CONSTANTVOLUME:NOREHEAT,ZONEDIRECTAIR_UNIT1_BACKROW_TOPFLOOR,Outlet,1
 Non-Parent Node Connection,ZONE INLET NODE_UNIT2_BACKROW_TOPFLOOR ATINLET,AIRTERMINAL:SINGLEDUCT:CONSTANTVOLUME:NOREHEAT,ZONEDIRECTAIR_UNIT2_BACKROW_TOPFLOOR,Inlet,1
 Non-Parent Node Connection,ZONE INLET NODE_UNIT2_BACKROW_TOPFLOOR,AIRTERMINAL:SINGLEDUCT:CONSTANTVOLUME:NOREHEAT,ZONEDIRECTAIR_UNIT2_BACKROW_TOPFLOOR,Outlet,1
 Non-Parent Node Connection,ZONE INLET NODE_UNIT3_BACKROW_TOPFLOOR ATINLET,AIRTERMINAL:SINGLEDUCT:CONSTANTVOLUME:NOREHEAT,ZONEDIRECTAIR_UNIT3_BACKROW_TOPFLOOR,Inlet,1
 Non-Parent Node Connection,ZONE INLET NODE_UNIT3_BACKROW_TOPFLOOR,AIRTERMINAL:SINGLEDUCT:CONSTANTVOLUME:NOREHEAT,ZONEDIRECTAIR_UNIT3_BACKROW_TOPFLOOR,Outlet,1
 Non-Parent Node Connection,ZONE INLET NODE_UNITHEATEDBSMT ATINLET,AIRTERMINAL:SINGLEDUCT:CONSTANTVOLUME:NOREHEAT,ZONEDIRECTAIR_UNITHEATEDBSMT,Inlet,1
 Non-Parent Node Connection,ZONE INLET NODE_UNITHEATEDBSMT,AIRTERMINAL:SINGLEDUCT:CONSTANTVOLUME:NOREHEAT,ZONEDIRECTAIR_UNITHEATEDBSMT,Outlet,1
 Non-Parent Node Connection,RETURN AIR MIXER OUTLET_UNIT1_FRONTROW_BOTTOMFLOOR,AIRLOOPHVAC:ZONEMIXER,ZONE RETURN AIR MIXER_UNIT1_FRONTROW_BOTTOMFLOOR,Outlet,1
 Non-Parent Node Connection,ZONE OUTLET NODE_UNIT1_FRONTROW_BOTTOMFLOOR,AIRLOOPHVAC:ZONEMIXER,ZONE RETURN AIR MIXER_UNIT1_FRONTROW_BOTTOMFLOOR,Inlet,1
 Non-Parent Node Connection,RETURN AIR MIXER OUTLET_UNIT2_FRONTROW_BOTTOMFLOOR,AIRLOOPHVAC:ZONEMIXER,ZONE RETURN AIR MIXER_UNIT2_FRONTROW_BOTTOMFLOOR,Outlet,1
 Non-Parent Node Connection,ZONE OUTLET NODE_UNIT2_FRONTROW_BOTTOMFLOOR,AIRLOOPHVAC:ZONEMIXER,ZONE RETURN AIR MIXER_UNIT2_FRONTROW_BOTTOMFLOOR,Inlet,1
 Non-Parent Node Connection,RETURN AIR MIXER OUTLET_UNIT3_FRONTROW_BOTTOMFLOOR,AIRLOOPHVAC:ZONEMIXER,ZONE RETURN AIR MIXER_UNIT3_FRONTROW_BOTTOMFLOOR,Outlet,1
 Non-Parent Node Connection,ZONE OUTLET NODE_UNIT3_FRONTROW_BOTTOMFLOOR,AIRLOOPHVAC:ZONEMIXER,ZONE RETURN AIR MIXER_UNIT3_FRONTROW_BOTTOMFLOOR,Inlet,1
 Non-Parent Node Connection,RETURN AIR MIXER OUTLET_UNIT1_BACKROW_BOTTOMFLOOR,AIRLOOPHVAC:ZONEMIXER,ZONE RETURN AIR MIXER_UNIT1_BACKROW_BOTTOMFLOOR,Outlet,1
 Non-Parent Node Connection,ZONE OUTLET NODE_UNIT1_BACKROW_BOTTOMFLOOR,AIRLOOPHVAC:ZONEMIXER,ZONE RETURN AIR MIXER_UNIT1_BACKROW_BOTTOMFLOOR,Inlet,1
 Non-Parent Node Connection,RETURN AIR MIXER OUTLET_UNIT2_BACKROW_BOTTOMFLOOR,AIRLOOPHVAC:ZONEMIXER,ZONE RETURN AIR MIXER_UNIT2_BACKROW_BOTTOMFLOOR,Outlet,1
 Non-Parent Node Connection,ZONE OUTLET NODE_UNIT2_BACKROW_BOTTOMFLOOR,AIRLOOPHVAC:ZONEMIXER,ZONE RETURN AIR MIXER_UNIT2_BACKROW_BOTTOMFLOOR,Inlet,1
 Non-Parent Node Connection,RETURN AIR MIXER OUTLET_UNIT3_BACKROW_BOTTOMFLOOR,AIRLOOPHVAC:ZONEMIXER,ZONE RETURN AIR MIXER_UNIT3_BACKROW_BOTTOMFLOOR,Outlet,1
 Non-Parent Node Connection,ZONE OUTLET NODE_UNIT3_BACKROW_BOTTOMFLOOR,AIRLOOPHVAC:ZONEMIXER,ZONE RETURN AIR MIXER_UNIT3_BACKROW_BOTTOMFLOOR,Inlet,1
 Non-Parent Node Connection,RETURN AIR MIXER OUTLET_UNIT1_FRONTROW_MIDDLEFLOOR,AIRLOOPHVAC:ZONEMIXER,ZONE RETURN AIR MIXER_UNIT1_FRONTROW_MIDDLEFLOOR,Outlet,1
 Non-Parent Node Connection,ZONE OUTLET NODE_UNIT1_FRONTROW_MIDDLEFLOOR,AIRLOOPHVAC:ZONEMIXER,ZONE RETURN AIR MIXER_UNIT1_FRONTROW_MIDDLEFLOOR,Inlet,1
 Non-Parent Node Connection,RETURN AIR MIXER OUTLET_UNIT2_FRONTROW_MIDDLEFLOOR,AIRLOOPHVAC:ZONEMIXER,ZONE RETURN AIR MIXER_UNIT2_FRONTROW_MIDDLEFLOOR,Outlet,1
 Non-Parent Node Connection,ZONE OUTLET NODE_UNIT2_FRONTROW_MIDDLEFLOOR,AIRLOOPHVAC:ZONEMIXER,ZONE RETURN AIR MIXER_UNIT2_FRONTROW_MIDDLEFLOOR,Inlet,1
 Non-Parent Node Connection,RETURN AIR MIXER OUTLET_UNIT3_FRONTROW_MIDDLEFLOOR,AIRLOOPHVAC:ZONEMIXER,ZONE RETURN AIR MIXER_UNIT3_FRONTROW_MIDDLEFLOOR,Outlet,1
 Non-Parent Node Connection,ZONE OUTLET NODE_UNIT3_FRONTROW_MIDDLEFLOOR,AIRLOOPHVAC:ZONEMIXER,ZONE RETURN AIR MIXER_UNIT3_FRONTROW_MIDDLEFLOOR,Inlet,1
 Non-Parent Node Connection,RETURN AIR MIXER OUTLET_UNIT1_BACKROW_MIDDLEFLOOR,AIRLOOPHVAC:ZONEMIXER,ZONE RETURN AIR MIXER_UNIT1_BACKROW_MIDDLEFLOOR,Outlet,1
 Non-Parent Node Connection,ZONE OUTLET NODE_UNIT1_BACKROW_MIDDLEFLOOR,AIRLOOPHVAC:ZONEMIXER,ZONE RETURN AIR MIXER_UNIT1_BACKROW_MIDDLEFLOOR,Inlet,1
 Non-Parent Node Connection,RETURN AIR MIXER OUTLET_UNIT2_BACKROW_MIDDLEFLOOR,AIRLOOPHVAC:ZONEMIXER,ZONE RETURN AIR MIXER_UNIT2_BACKROW_MIDDLEFLOOR,Outlet,1
 Non-Parent Node Connection,ZONE OUTLET NODE_UNIT2_BACKROW_MIDDLEFLOOR,AIRLOOPHVAC:ZONEMIXER,ZONE RETURN AIR MIXER_UNIT2_BACKROW_MIDDLEFLOOR,Inlet,1
 Non-Parent Node Connection,RETURN AIR MIXER OUTLET_UNIT3_BACKROW_MIDDLEFLOOR,AIRLOOPHVAC:ZONEMIXER,ZONE RETURN AIR MIXER_UNIT3_BACKROW_MIDDLEFLOOR,Outlet,1
 Non-Parent Node Connection,ZONE OUTLET NODE_UNIT3_BACKROW_MIDDLEFLOOR,AIRLOOPHVAC:ZONEMIXER,ZONE RETURN AIR MIXER_UNIT3_BACKROW_MIDDLEFLOOR,Inlet,1
 Non-Parent Node Connection,RETURN AIR MIXER OUTLET_UNIT1_FRONTROW_TOPFLOOR,AIRLOOPHVAC:ZONEMIXER,ZONE RETURN AIR MIXER_UNIT1_FRONTROW_TOPFLOOR,Outlet,1
 Non-Parent Node Connection,ZONE OUTLET NODE_UNIT1_FRONTROW_TOPFLOOR,AIRLOOPHVAC:ZONEMIXER,ZONE RETURN AIR MIXER_UNIT1_FRONTROW_TOPFLOOR,Inlet,1
 Non-Parent Node Connection,RETURN AIR MIXER OUTLET_UNIT2_FRONTROW_TOPFLOOR,AIRLOOPHVAC:ZONEMIXER,ZONE RETURN AIR MIXER_UNIT2_FRONTROW_TOPFLOOR,Outlet,1
 Non-Parent Node Connection,ZONE OUTLET NODE_UNIT2_FRONTROW_TOPFLOOR,AIRLOOPHVAC:ZONEMIXER,ZONE RETURN AIR MIXER_UNIT2_FRONTROW_TOPFLOOR,Inlet,1
 Non-Parent Node Connection,RETURN AIR MIXER OUTLET_UNIT3_FRONTROW_TOPFLOOR,AIRLOOPHVAC:ZONEMIXER,ZONE RETURN AIR MIXER_UNIT3_FRONTROW_TOPFLOOR,Outlet,1
 Non-Parent Node Connection,ZONE OUTLET NODE_UNIT3_FRONTROW_TOPFLOOR,AIRLOOPHVAC:ZONEMIXER,ZONE RETURN AIR MIXER_UNIT3_FRONTROW_TOPFLOOR,Inlet,1
 Non-Parent Node Connection,RETURN AIR MIXER OUTLET_UNIT1_BACKROW_TOPFLOOR,AIRLOOPHVAC:ZONEMIXER,ZONE RETURN AIR MIXER_UNIT1_BACKROW_TOPFLOOR,Outlet,1
 Non-Parent Node Connection,ZONE OUTLET NODE_UNIT1_BACKROW_TOPFLOOR,AIRLOOPHVAC:ZONEMIXER,ZONE RETURN AIR MIXER_UNIT1_BACKROW_TOPFLOOR,Inlet,1
 Non-Parent Node Connection,RETURN AIR MIXER OUTLET_UNIT2_BACKROW_TOPFLOOR,AIRLOOPHVAC:ZONEMIXER,ZONE RETURN AIR MIXER_UNIT2_BACKROW_TOPFLOOR,Outlet,1
 Non-Parent Node Connection,ZONE OUTLET NODE_UNIT2_BACKROW_TOPFLOOR,AIRLOOPHVAC:ZONEMIXER,ZONE RETURN AIR MIXER_UNIT2_BACKROW_TOPFLOOR,Inlet,1
 Non-Parent Node Connection,RETURN AIR MIXER OUTLET_UNIT3_BACKROW_TOPFLOOR,AIRLOOPHVAC:ZONEMIXER,ZONE RETURN AIR MIXER_UNIT3_BACKROW_TOPFLOOR,Outlet,1
 Non-Parent Node Connection,ZONE OUTLET NODE_UNIT3_BACKROW_TOPFLOOR,AIRLOOPHVAC:ZONEMIXER,ZONE RETURN AIR MIXER_UNIT3_BACKROW_TOPFLOOR,Inlet,1
 Non-Parent Node Connection,RETURN AIR MIXER OUTLET_UNITHEATEDBSMT,AIRLOOPHVAC:ZONEMIXER,ZONE RETURN AIR MIXER_UNITHEATEDBSMT,Outlet,1
 Non-Parent Node Connection,ZONE OUTLET NODE_UNITHEATEDBSMT,AIRLOOPHVAC:ZONEMIXER,ZONE RETURN AIR MIXER_UNITHEATEDBSMT,Inlet,1
 Non-Parent Node Connection,SUPP HEATING COIL AIR INLET NODE_UNIT1_FRONTROW_BOTTOMFLOOR,COIL:HEATING:ELECTRIC,SUPP HEATING COIL_UNIT1_FRONTROW_BOTTOMFLOOR,Inlet,1
 Non-Parent Node Connection,AIR LOOP OUTLET NODE_UNIT1_FRONTROW_BOTTOMFLOOR,COIL:HEATING:ELECTRIC,SUPP HEATING COIL_UNIT1_FRONTROW_BOTTOMFLOOR,Outlet,1
 Non-Parent Node Connection,SUPP HEATING COIL AIR INLET NODE_UNIT2_FRONTROW_BOTTOMFLOOR,COIL:HEATING:ELECTRIC,SUPP HEATING COIL_UNIT2_FRONTROW_BOTTOMFLOOR,Inlet,1
 Non-Parent Node Connection,AIR LOOP OUTLET NODE_UNIT2_FRONTROW_BOTTOMFLOOR,COIL:HEATING:ELECTRIC,SUPP HEATING COIL_UNIT2_FRONTROW_BOTTOMFLOOR,Outlet,1
 Non-Parent Node Connection,SUPP HEATING COIL AIR INLET NODE_UNIT3_FRONTROW_BOTTOMFLOOR,COIL:HEATING:ELECTRIC,SUPP HEATING COIL_UNIT3_FRONTROW_BOTTOMFLOOR,Inlet,1
 Non-Parent Node Connection,AIR LOOP OUTLET NODE_UNIT3_FRONTROW_BOTTOMFLOOR,COIL:HEATING:ELECTRIC,SUPP HEATING COIL_UNIT3_FRONTROW_BOTTOMFLOOR,Outlet,1
 Non-Parent Node Connection,SUPP HEATING COIL AIR INLET NODE_UNIT1_BACKROW_BOTTOMFLOOR,COIL:HEATING:ELECTRIC,SUPP HEATING COIL_UNIT1_BACKROW_BOTTOMFLOOR,Inlet,1
 Non-Parent Node Connection,AIR LOOP OUTLET NODE_UNIT1_BACKROW_BOTTOMFLOOR,COIL:HEATING:ELECTRIC,SUPP HEATING COIL_UNIT1_BACKROW_BOTTOMFLOOR,Outlet,1
 Non-Parent Node Connection,SUPP HEATING COIL AIR INLET NODE_UNIT2_BACKROW_BOTTOMFLOOR,COIL:HEATING:ELECTRIC,SUPP HEATING COIL_UNIT2_BACKROW_BOTTOMFLOOR,Inlet,1
 Non-Parent Node Connection,AIR LOOP OUTLET NODE_UNIT2_BACKROW_BOTTOMFLOOR,COIL:HEATING:ELECTRIC,SUPP HEATING COIL_UNIT2_BACKROW_BOTTOMFLOOR,Outlet,1
 Non-Parent Node Connection,SUPP HEATING COIL AIR INLET NODE_UNIT3_BACKROW_BOTTOMFLOOR,COIL:HEATING:ELECTRIC,SUPP HEATING COIL_UNIT3_BACKROW_BOTTOMFLOOR,Inlet,1
 Non-Parent Node Connection,AIR LOOP OUTLET NODE_UNIT3_BACKROW_BOTTOMFLOOR,COIL:HEATING:ELECTRIC,SUPP HEATING COIL_UNIT3_BACKROW_BOTTOMFLOOR,Outlet,1
 Non-Parent Node Connection,SUPP HEATING COIL AIR INLET NODE_UNIT1_FRONTROW_MIDDLEFLOOR,COIL:HEATING:ELECTRIC,SUPP HEATING COIL_UNIT1_FRONTROW_MIDDLEFLOOR,Inlet,1
 Non-Parent Node Connection,AIR LOOP OUTLET NODE_UNIT1_FRONTROW_MIDDLEFLOOR,COIL:HEATING:ELECTRIC,SUPP HEATING COIL_UNIT1_FRONTROW_MIDDLEFLOOR,Outlet,1
 Non-Parent Node Connection,SUPP HEATING COIL AIR INLET NODE_UNIT2_FRONTROW_MIDDLEFLOOR,COIL:HEATING:ELECTRIC,SUPP HEATING COIL_UNIT2_FRONTROW_MIDDLEFLOOR,Inlet,1
 Non-Parent Node Connection,AIR LOOP OUTLET NODE_UNIT2_FRONTROW_MIDDLEFLOOR,COIL:HEATING:ELECTRIC,SUPP HEATING COIL_UNIT2_FRONTROW_MIDDLEFLOOR,Outlet,1
 Non-Parent Node Connection,SUPP HEATING COIL AIR INLET NODE_UNIT3_FRONTROW_MIDDLEFLOOR,COIL:HEATING:ELECTRIC,SUPP HEATING COIL_UNIT3_FRONTROW_MIDDLEFLOOR,Inlet,1
 Non-Parent Node Connection,AIR LOOP OUTLET NODE_UNIT3_FRONTROW_MIDDLEFLOOR,COIL:HEATING:ELECTRIC,SUPP HEATING COIL_UNIT3_FRONTROW_MIDDLEFLOOR,Outlet,1
 Non-Parent Node Connection,SUPP HEATING COIL AIR INLET NODE_UNIT1_BACKROW_MIDDLEFLOOR,COIL:HEATING:ELECTRIC,SUPP HEATING COIL_UNIT1_BACKROW_MIDDLEFLOOR,Inlet,1
 Non-Parent Node Connection,AIR LOOP OUTLET NODE_UNIT1_BACKROW_MIDDLEFLOOR,COIL:HEATING:ELECTRIC,SUPP HEATING COIL_UNIT1_BACKROW_MIDDLEFLOOR,Outlet,1
 Non-Parent Node Connection,SUPP HEATING COIL AIR INLET NODE_UNIT2_BACKROW_MIDDLEFLOOR,COIL:HEATING:ELECTRIC,SUPP HEATING COIL_UNIT2_BACKROW_MIDDLEFLOOR,Inlet,1
 Non-Parent Node Connection,AIR LOOP OUTLET NODE_UNIT2_BACKROW_MIDDLEFLOOR,COIL:HEATING:ELECTRIC,SUPP HEATING COIL_UNIT2_BACKROW_MIDDLEFLOOR,Outlet,1
 Non-Parent Node Connection,SUPP HEATING COIL AIR INLET NODE_UNIT3_BACKROW_MIDDLEFLOOR,COIL:HEATING:ELECTRIC,SUPP HEATING COIL_UNIT3_BACKROW_MIDDLEFLOOR,Inlet,1
 Non-Parent Node Connection,AIR LOOP OUTLET NODE_UNIT3_BACKROW_MIDDLEFLOOR,COIL:HEATING:ELECTRIC,SUPP HEATING COIL_UNIT3_BACKROW_MIDDLEFLOOR,Outlet,1
 Non-Parent Node Connection,SUPP HEATING COIL AIR INLET NODE_UNIT1_FRONTROW_TOPFLOOR,COIL:HEATING:ELECTRIC,SUPP HEATING COIL_UNIT1_FRONTROW_TOPFLOOR,Inlet,1
 Non-Parent Node Connection,AIR LOOP OUTLET NODE_UNIT1_FRONTROW_TOPFLOOR,COIL:HEATING:ELECTRIC,SUPP HEATING COIL_UNIT1_FRONTROW_TOPFLOOR,Outlet,1
 Non-Parent Node Connection,SUPP HEATING COIL AIR INLET NODE_UNIT2_FRONTROW_TOPFLOOR,COIL:HEATING:ELECTRIC,SUPP HEATING COIL_UNIT2_FRONTROW_TOPFLOOR,Inlet,1
 Non-Parent Node Connection,AIR LOOP OUTLET NODE_UNIT2_FRONTROW_TOPFLOOR,COIL:HEATING:ELECTRIC,SUPP HEATING COIL_UNIT2_FRONTROW_TOPFLOOR,Outlet,1
 Non-Parent Node Connection,SUPP HEATING COIL AIR INLET NODE_UNIT3_FRONTROW_TOPFLOOR,COIL:HEATING:ELECTRIC,SUPP HEATING COIL_UNIT3_FRONTROW_TOPFLOOR,Inlet,1
 Non-Parent Node Connection,AIR LOOP OUTLET NODE_UNIT3_FRONTROW_TOPFLOOR,COIL:HEATING:ELECTRIC,SUPP HEATING COIL_UNIT3_FRONTROW_TOPFLOOR,Outlet,1
 Non-Parent Node Connection,SUPP HEATING COIL AIR INLET NODE_UNIT1_BACKROW_TOPFLOOR,COIL:HEATING:ELECTRIC,SUPP HEATING COIL_UNIT1_BACKROW_TOPFLOOR,Inlet,1
 Non-Parent Node Connection,AIR LOOP OUTLET NODE_UNIT1_BACKROW_TOPFLOOR,COIL:HEATING:ELECTRIC,SUPP HEATING COIL_UNIT1_BACKROW_TOPFLOOR,Outlet,1
 Non-Parent Node Connection,SUPP HEATING COIL AIR INLET NODE_UNIT2_BACKROW_TOPFLOOR,COIL:HEATING:ELECTRIC,SUPP HEATING COIL_UNIT2_BACKROW_TOPFLOOR,Inlet,1
 Non-Parent Node Connection,AIR LOOP OUTLET NODE_UNIT2_BACKROW_TOPFLOOR,COIL:HEATING:ELECTRIC,SUPP HEATING COIL_UNIT2_BACKROW_TOPFLOOR,Outlet,1
 Non-Parent Node Connection,SUPP HEATING COIL AIR INLET NODE_UNIT3_BACKROW_TOPFLOOR,COIL:HEATING:ELECTRIC,SUPP HEATING COIL_UNIT3_BACKROW_TOPFLOOR,Inlet,1
 Non-Parent Node Connection,AIR LOOP OUTLET NODE_UNIT3_BACKROW_TOPFLOOR,COIL:HEATING:ELECTRIC,SUPP HEATING COIL_UNIT3_BACKROW_TOPFLOOR,Outlet,1
 Non-Parent Node Connection,SUPP HEATING COIL AIR INLET NODE_UNITHEATEDBSMT,COIL:HEATING:ELECTRIC,SUPP HEATING COIL_UNITHEATEDBSMT,Inlet,1
 Non-Parent Node Connection,AIR LOOP OUTLET NODE_UNITHEATEDBSMT,COIL:HEATING:ELECTRIC,SUPP HEATING COIL_UNITHEATEDBSMT,Outlet,1
 Non-Parent Node Connection,MAINS INLET NODE_UNIT1_FRONTROW_BOTTOMFLOOR,PUMP:VARIABLESPEED,MAINS PRESSURE_UNIT1_FRONTROW_BOTTOMFLOOR,Inlet,1
 Non-Parent Node Connection,MAINS PRESSURE OUTLET NODE_UNIT1_FRONTROW_BOTTOMFLOOR,PUMP:VARIABLESPEED,MAINS PRESSURE_UNIT1_FRONTROW_BOTTOMFLOOR,Outlet,1
 Non-Parent Node Connection,MAINS INLET NODE_UNIT2_FRONTROW_BOTTOMFLOOR,PUMP:VARIABLESPEED,MAINS PRESSURE_UNIT2_FRONTROW_BOTTOMFLOOR,Inlet,1
 Non-Parent Node Connection,MAINS PRESSURE OUTLET NODE_UNIT2_FRONTROW_BOTTOMFLOOR,PUMP:VARIABLESPEED,MAINS PRESSURE_UNIT2_FRONTROW_BOTTOMFLOOR,Outlet,1
 Non-Parent Node Connection,MAINS INLET NODE_UNIT3_FRONTROW_BOTTOMFLOOR,PUMP:VARIABLESPEED,MAINS PRESSURE_UNIT3_FRONTROW_BOTTOMFLOOR,Inlet,1
 Non-Parent Node Connection,MAINS PRESSURE OUTLET NODE_UNIT3_FRONTROW_BOTTOMFLOOR,PUMP:VARIABLESPEED,MAINS PRESSURE_UNIT3_FRONTROW_BOTTOMFLOOR,Outlet,1
 Non-Parent Node Connection,MAINS INLET NODE_UNIT1_BACKROW_BOTTOMFLOOR,PUMP:VARIABLESPEED,MAINS PRESSURE_UNIT1_BACKROW_BOTTOMFLOOR,Inlet,1
 Non-Parent Node Connection,MAINS PRESSURE OUTLET NODE_UNIT1_BACKROW_BOTTOMFLOOR,PUMP:VARIABLESPEED,MAINS PRESSURE_UNIT1_BACKROW_BOTTOMFLOOR,Outlet,1
 Non-Parent Node Connection,MAINS INLET NODE_UNIT2_BACKROW_BOTTOMFLOOR,PUMP:VARIABLESPEED,MAINS PRESSURE_UNIT2_BACKROW_BOTTOMFLOOR,Inlet,1
 Non-Parent Node Connection,MAINS PRESSURE OUTLET NODE_UNIT2_BACKROW_BOTTOMFLOOR,PUMP:VARIABLESPEED,MAINS PRESSURE_UNIT2_BACKROW_BOTTOMFLOOR,Outlet,1
 Non-Parent Node Connection,MAINS INLET NODE_UNIT3_BACKROW_BOTTOMFLOOR,PUMP:VARIABLESPEED,MAINS PRESSURE_UNIT3_BACKROW_BOTTOMFLOOR,Inlet,1
 Non-Parent Node Connection,MAINS PRESSURE OUTLET NODE_UNIT3_BACKROW_BOTTOMFLOOR,PUMP:VARIABLESPEED,MAINS PRESSURE_UNIT3_BACKROW_BOTTOMFLOOR,Outlet,1
 Non-Parent Node Connection,MAINS INLET NODE_UNIT1_FRONTROW_MIDDLEFLOOR,PUMP:VARIABLESPEED,MAINS PRESSURE_UNIT1_FRONTROW_MIDDLEFLOOR,Inlet,1
 Non-Parent Node Connection,MAINS PRESSURE OUTLET NODE_UNIT1_FRONTROW_MIDDLEFLOOR,PUMP:VARIABLESPEED,MAINS PRESSURE_UNIT1_FRONTROW_MIDDLEFLOOR,Outlet,1
 Non-Parent Node Connection,MAINS INLET NODE_UNIT2_FRONTROW_MIDDLEFLOOR,PUMP:VARIABLESPEED,MAINS PRESSURE_UNIT2_FRONTROW_MIDDLEFLOOR,Inlet,1
 Non-Parent Node Connection,MAINS PRESSURE OUTLET NODE_UNIT2_FRONTROW_MIDDLEFLOOR,PUMP:VARIABLESPEED,MAINS PRESSURE_UNIT2_FRONTROW_MIDDLEFLOOR,Outlet,1
 Non-Parent Node Connection,MAINS INLET NODE_UNIT3_FRONTROW_MIDDLEFLOOR,PUMP:VARIABLESPEED,MAINS PRESSURE_UNIT3_FRONTROW_MIDDLEFLOOR,Inlet,1
 Non-Parent Node Connection,MAINS PRESSURE OUTLET NODE_UNIT3_FRONTROW_MIDDLEFLOOR,PUMP:VARIABLESPEED,MAINS PRESSURE_UNIT3_FRONTROW_MIDDLEFLOOR,Outlet,1
 Non-Parent Node Connection,MAINS INLET NODE_UNIT1_BACKROW_MIDDLEFLOOR,PUMP:VARIABLESPEED,MAINS PRESSURE_UNIT1_BACKROW_MIDDLEFLOOR,Inlet,1
 Non-Parent Node Connection,MAINS PRESSURE OUTLET NODE_UNIT1_BACKROW_MIDDLEFLOOR,PUMP:VARIABLESPEED,MAINS PRESSURE_UNIT1_BACKROW_MIDDLEFLOOR,Outlet,1
 Non-Parent Node Connection,MAINS INLET NODE_UNIT2_BACKROW_MIDDLEFLOOR,PUMP:VARIABLESPEED,MAINS PRESSURE_UNIT2_BACKROW_MIDDLEFLOOR,Inlet,1
 Non-Parent Node Connection,MAINS PRESSURE OUTLET NODE_UNIT2_BACKROW_MIDDLEFLOOR,PUMP:VARIABLESPEED,MAINS PRESSURE_UNIT2_BACKROW_MIDDLEFLOOR,Outlet,1
 Non-Parent Node Connection,MAINS INLET NODE_UNIT3_BACKROW_MIDDLEFLOOR,PUMP:VARIABLESPEED,MAINS PRESSURE_UNIT3_BACKROW_MIDDLEFLOOR,Inlet,1
 Non-Parent Node Connection,MAINS PRESSURE OUTLET NODE_UNIT3_BACKROW_MIDDLEFLOOR,PUMP:VARIABLESPEED,MAINS PRESSURE_UNIT3_BACKROW_MIDDLEFLOOR,Outlet,1
 Non-Parent Node Connection,MAINS INLET NODE_UNIT1_FRONTROW_TOPFLOOR,PUMP:VARIABLESPEED,MAINS PRESSURE_UNIT1_FRONTROW_TOPFLOOR,Inlet,1
 Non-Parent Node Connection,MAINS PRESSURE OUTLET NODE_UNIT1_FRONTROW_TOPFLOOR,PUMP:VARIABLESPEED,MAINS PRESSURE_UNIT1_FRONTROW_TOPFLOOR,Outlet,1
 Non-Parent Node Connection,MAINS INLET NODE_UNIT2_FRONTROW_TOPFLOOR,PUMP:VARIABLESPEED,MAINS PRESSURE_UNIT2_FRONTROW_TOPFLOOR,Inlet,1
 Non-Parent Node Connection,MAINS PRESSURE OUTLET NODE_UNIT2_FRONTROW_TOPFLOOR,PUMP:VARIABLESPEED,MAINS PRESSURE_UNIT2_FRONTROW_TOPFLOOR,Outlet,1
 Non-Parent Node Connection,MAINS INLET NODE_UNIT3_FRONTROW_TOPFLOOR,PUMP:VARIABLESPEED,MAINS PRESSURE_UNIT3_FRONTROW_TOPFLOOR,Inlet,1
 Non-Parent Node Connection,MAINS PRESSURE OUTLET NODE_UNIT3_FRONTROW_TOPFLOOR,PUMP:VARIABLESPEED,MAINS PRESSURE_UNIT3_FRONTROW_TOPFLOOR,Outlet,1
 Non-Parent Node Connection,MAINS INLET NODE_UNIT1_BACKROW_TOPFLOOR,PUMP:VARIABLESPEED,MAINS PRESSURE_UNIT1_BACKROW_TOPFLOOR,Inlet,1
 Non-Parent Node Connection,MAINS PRESSURE OUTLET NODE_UNIT1_BACKROW_TOPFLOOR,PUMP:VARIABLESPEED,MAINS PRESSURE_UNIT1_BACKROW_TOPFLOOR,Outlet,1
 Non-Parent Node Connection,MAINS INLET NODE_UNIT2_BACKROW_TOPFLOOR,PUMP:VARIABLESPEED,MAINS PRESSURE_UNIT2_BACKROW_TOPFLOOR,Inlet,1
 Non-Parent Node Connection,MAINS PRESSURE OUTLET NODE_UNIT2_BACKROW_TOPFLOOR,PUMP:VARIABLESPEED,MAINS PRESSURE_UNIT2_BACKROW_TOPFLOOR,Outlet,1
 Non-Parent Node Connection,MAINS INLET NODE_UNIT3_BACKROW_TOPFLOOR,PUMP:VARIABLESPEED,MAINS PRESSURE_UNIT3_BACKROW_TOPFLOOR,Inlet,1
 Non-Parent Node Connection,MAINS PRESSURE OUTLET NODE_UNIT3_BACKROW_TOPFLOOR,PUMP:VARIABLESPEED,MAINS PRESSURE_UNIT3_BACKROW_TOPFLOOR,Outlet,1
